
OS:Version,
  {bde8d1bb-e491-471a-845e-bc571c00e127}, !- Handle
  1.2.5;                                  !- Version Identifier

OS:BuildingStory,
  {1e82ef63-dac3-47af-af8b-c0da89141d29}, !- Handle
  First Floor,                            !- Name
  ,                                       !- Nominal Z Coordinate {m}
  5,                                      !- Nominal Floor to Floor Height {m}
  ,                                       !- Default Construction Set Name
  ,                                       !- Default Schedule Set Name
  ;                                       !- Group Rendering Name

OS:Space,
  {4c7a4282-a040-484d-9735-b106c965c756}, !- Handle
  Space 1,                                !- Name
  {df62f45e-0892-4cf4-a7e7-aee3f2674735}, !- Space Type Name
  ,                                       !- Default Construction Set Name
  ,                                       !- Default Schedule Set Name
  ,                                       !- Direction of Relative North {deg}
  ,                                       !- X Origin {m}
  ,                                       !- Y Origin {m}
  ,                                       !- Z Origin {m}
  {1e82ef63-dac3-47af-af8b-c0da89141d29}, !- Building Story Name
  {5eee2e27-f3a2-4e43-b876-3e19822addbd}; !- Thermal Zone Name

OS:Surface,
  {7f83bef3-54e4-440d-875e-40e9a8baeb91}, !- Handle
  Surface 1,                              !- Name
  Floor,                                  !- Surface Type
  ,                                       !- Construction Name
  {4c7a4282-a040-484d-9735-b106c965c756}, !- Space Name
  Ground,                                 !- Outside Boundary Condition
  ,                                       !- Outside Boundary Condition Object
  NoSun,                                  !- Sun Exposure
  NoWind,                                 !- Wind Exposure
  ,                                       !- View Factor to Ground
  ,                                       !- Number of Vertices
  0, 0, 0,                                !- X,Y,Z Vertex 1 {m}
  0, 20, 0,                               !- X,Y,Z Vertex 2 {m}
  20, 20, 0,                              !- X,Y,Z Vertex 3 {m}
  20, 10, 0,                              !- X,Y,Z Vertex 4 {m}
  20, 0, 0;                               !- X,Y,Z Vertex 5 {m}

OS:Surface,
  {a1cf305a-ff4d-4a39-8b0d-64c641149a40}, !- Handle
  Surface 2,                              !- Name
  Wall,                                   !- Surface Type
  ,                                       !- Construction Name
  {4c7a4282-a040-484d-9735-b106c965c756}, !- Space Name
  Outdoors,                               !- Outside Boundary Condition
  ,                                       !- Outside Boundary Condition Object
  SunExposed,                             !- Sun Exposure
  WindExposed,                            !- Wind Exposure
  ,                                       !- View Factor to Ground
  ,                                       !- Number of Vertices
  0, 20, 5,                               !- X,Y,Z Vertex 1 {m}
  0, 20, 0,                               !- X,Y,Z Vertex 2 {m}
  0, 0, 0,                                !- X,Y,Z Vertex 3 {m}
  0, 0, 5;                                !- X,Y,Z Vertex 4 {m}

OS:Surface,
  {08d532ec-719a-4c3e-ad0d-999e3d2b99d1}, !- Handle
  Surface 3,                              !- Name
  Wall,                                   !- Surface Type
  ,                                       !- Construction Name
  {4c7a4282-a040-484d-9735-b106c965c756}, !- Space Name
  Outdoors,                               !- Outside Boundary Condition
  ,                                       !- Outside Boundary Condition Object
  SunExposed,                             !- Sun Exposure
  WindExposed,                            !- Wind Exposure
  ,                                       !- View Factor to Ground
  ,                                       !- Number of Vertices
  20, 20, 5,                              !- X,Y,Z Vertex 1 {m}
  20, 20, 0,                              !- X,Y,Z Vertex 2 {m}
  0, 20, 0,                               !- X,Y,Z Vertex 3 {m}
  0, 20, 5;                               !- X,Y,Z Vertex 4 {m}

OS:Surface,
  {f0376df6-eafd-44d3-a92d-7f1165cf39bf}, !- Handle
  Surface 4,                              !- Name
  Wall,                                   !- Surface Type
  ,                                       !- Construction Name
  {4c7a4282-a040-484d-9735-b106c965c756}, !- Space Name
  Surface,                                !- Outside Boundary Condition
  {5e723d64-31af-41a1-8785-0b27f65f50e0}, !- Outside Boundary Condition Object
  NoSun,                                  !- Sun Exposure
  NoWind,                                 !- Wind Exposure
  ,                                       !- View Factor to Ground
  ,                                       !- Number of Vertices
  20, 10, 5,                              !- X,Y,Z Vertex 1 {m}
  20, 10, 0,                              !- X,Y,Z Vertex 2 {m}
  20, 20, 0,                              !- X,Y,Z Vertex 3 {m}
  20, 20, 5;                              !- X,Y,Z Vertex 4 {m}

OS:Surface,
  {164e39d0-4e35-47d2-acc4-0c719d23708e}, !- Handle
  Surface 5,                              !- Name
  Wall,                                   !- Surface Type
  ,                                       !- Construction Name
  {4c7a4282-a040-484d-9735-b106c965c756}, !- Space Name
  Surface,                                !- Outside Boundary Condition
  {64ffa615-9363-413b-b746-1237d4c55a3c}, !- Outside Boundary Condition Object
  NoSun,                                  !- Sun Exposure
  NoWind,                                 !- Wind Exposure
  ,                                       !- View Factor to Ground
  ,                                       !- Number of Vertices
  20, 0, 5,                               !- X,Y,Z Vertex 1 {m}
  20, 0, 0,                               !- X,Y,Z Vertex 2 {m}
  20, 10, 0,                              !- X,Y,Z Vertex 3 {m}
  20, 10, 5;                              !- X,Y,Z Vertex 4 {m}

OS:Surface,
  {5d241991-be7f-487a-81a6-9a2e4e3ad228}, !- Handle
  Surface 6,                              !- Name
  Wall,                                   !- Surface Type
  ,                                       !- Construction Name
  {4c7a4282-a040-484d-9735-b106c965c756}, !- Space Name
  Outdoors,                               !- Outside Boundary Condition
  ,                                       !- Outside Boundary Condition Object
  SunExposed,                             !- Sun Exposure
  WindExposed,                            !- Wind Exposure
  ,                                       !- View Factor to Ground
  ,                                       !- Number of Vertices
  0, 0, 5,                                !- X,Y,Z Vertex 1 {m}
  0, 0, 0,                                !- X,Y,Z Vertex 2 {m}
  20, 0, 0,                               !- X,Y,Z Vertex 3 {m}
  20, 0, 5;                               !- X,Y,Z Vertex 4 {m}

OS:Surface,
  {d96f6856-c2d7-44a0-be54-703682535d67}, !- Handle
  Surface 7,                              !- Name
  RoofCeiling,                            !- Surface Type
  ,                                       !- Construction Name
  {4c7a4282-a040-484d-9735-b106c965c756}, !- Space Name
  Outdoors,                               !- Outside Boundary Condition
  ,                                       !- Outside Boundary Condition Object
  SunExposed,                             !- Sun Exposure
  WindExposed,                            !- Wind Exposure
  ,                                       !- View Factor to Ground
  ,                                       !- Number of Vertices
  20, 0, 5,                               !- X,Y,Z Vertex 1 {m}
  20, 10, 5,                              !- X,Y,Z Vertex 2 {m}
  20, 20, 5,                              !- X,Y,Z Vertex 3 {m}
  0, 20, 5,                               !- X,Y,Z Vertex 4 {m}
  0, 0, 5;                                !- X,Y,Z Vertex 5 {m}

OS:Space,
  {660f26cd-7aba-46d9-89a0-d0aa93ab1436}, !- Handle
  Space 2,                                !- Name
  {df62f45e-0892-4cf4-a7e7-aee3f2674735}, !- Space Type Name
  ,                                       !- Default Construction Set Name
  ,                                       !- Default Schedule Set Name
  ,                                       !- Direction of Relative North {deg}
  ,                                       !- X Origin {m}
  ,                                       !- Y Origin {m}
  ,                                       !- Z Origin {m}
  {1e82ef63-dac3-47af-af8b-c0da89141d29}, !- Building Story Name
  {0d792b96-5a21-480e-808f-33dd983c1c9d}; !- Thermal Zone Name

OS:Surface,
  {4891b13e-2752-4ad6-a8ab-d9cb2d7c4b6e}, !- Handle
  Surface 8,                              !- Name
  Floor,                                  !- Surface Type
  ,                                       !- Construction Name
  {660f26cd-7aba-46d9-89a0-d0aa93ab1436}, !- Space Name
  Ground,                                 !- Outside Boundary Condition
  ,                                       !- Outside Boundary Condition Object
  NoSun,                                  !- Sun Exposure
  NoWind,                                 !- Wind Exposure
  ,                                       !- View Factor to Ground
  ,                                       !- Number of Vertices
  20, 10, 0,                              !- X,Y,Z Vertex 1 {m}
  20, 20, 0,                              !- X,Y,Z Vertex 2 {m}
  30, 20, 0,                              !- X,Y,Z Vertex 3 {m}
  30, 10, 0;                              !- X,Y,Z Vertex 4 {m}

OS:Surface,
  {5e723d64-31af-41a1-8785-0b27f65f50e0}, !- Handle
  Surface 9,                              !- Name
  Wall,                                   !- Surface Type
  ,                                       !- Construction Name
  {660f26cd-7aba-46d9-89a0-d0aa93ab1436}, !- Space Name
  Surface,                                !- Outside Boundary Condition
  {f0376df6-eafd-44d3-a92d-7f1165cf39bf}, !- Outside Boundary Condition Object
  NoSun,                                  !- Sun Exposure
  NoWind,                                 !- Wind Exposure
  ,                                       !- View Factor to Ground
  ,                                       !- Number of Vertices
  20, 20, 5,                              !- X,Y,Z Vertex 1 {m}
  20, 20, 0,                              !- X,Y,Z Vertex 2 {m}
  20, 10, 0,                              !- X,Y,Z Vertex 3 {m}
  20, 10, 5;                              !- X,Y,Z Vertex 4 {m}

OS:Surface,
  {5366f6b7-2d49-48b1-8ca0-ccf3625b0c5e}, !- Handle
  Surface 10,                             !- Name
  Wall,                                   !- Surface Type
  ,                                       !- Construction Name
  {660f26cd-7aba-46d9-89a0-d0aa93ab1436}, !- Space Name
  Outdoors,                               !- Outside Boundary Condition
  ,                                       !- Outside Boundary Condition Object
  SunExposed,                             !- Sun Exposure
  WindExposed,                            !- Wind Exposure
  ,                                       !- View Factor to Ground
  ,                                       !- Number of Vertices
  30, 20, 5,                              !- X,Y,Z Vertex 1 {m}
  30, 20, 0,                              !- X,Y,Z Vertex 2 {m}
  20, 20, 0,                              !- X,Y,Z Vertex 3 {m}
  20, 20, 5;                              !- X,Y,Z Vertex 4 {m}

OS:Surface,
  {a7a38b3a-6ae9-49fe-aa50-a1cf28c56fc0}, !- Handle
  Surface 11,                             !- Name
  Wall,                                   !- Surface Type
  ,                                       !- Construction Name
  {660f26cd-7aba-46d9-89a0-d0aa93ab1436}, !- Space Name
  Outdoors,                               !- Outside Boundary Condition
  ,                                       !- Outside Boundary Condition Object
  SunExposed,                             !- Sun Exposure
  WindExposed,                            !- Wind Exposure
  ,                                       !- View Factor to Ground
  ,                                       !- Number of Vertices
  30, 10, 5,                              !- X,Y,Z Vertex 1 {m}
  30, 10, 0,                              !- X,Y,Z Vertex 2 {m}
  30, 20, 0,                              !- X,Y,Z Vertex 3 {m}
  30, 20, 5;                              !- X,Y,Z Vertex 4 {m}

OS:Surface,
  {8bd64225-9e97-4f7e-9332-4d3a5dd7c72d}, !- Handle
  Surface 12,                             !- Name
  Wall,                                   !- Surface Type
  ,                                       !- Construction Name
  {660f26cd-7aba-46d9-89a0-d0aa93ab1436}, !- Space Name
  Surface,                                !- Outside Boundary Condition
  {49d37e7b-923a-4940-a0a0-771a7642c839}, !- Outside Boundary Condition Object
  NoSun,                                  !- Sun Exposure
  NoWind,                                 !- Wind Exposure
  ,                                       !- View Factor to Ground
  ,                                       !- Number of Vertices
  20, 10, 5,                              !- X,Y,Z Vertex 1 {m}
  20, 10, 0,                              !- X,Y,Z Vertex 2 {m}
  30, 10, 0,                              !- X,Y,Z Vertex 3 {m}
  30, 10, 5;                              !- X,Y,Z Vertex 4 {m}

OS:Surface,
  {2c3063c5-f5fd-4d78-8b69-9315260900f2}, !- Handle
  Surface 13,                             !- Name
  RoofCeiling,                            !- Surface Type
  ,                                       !- Construction Name
  {660f26cd-7aba-46d9-89a0-d0aa93ab1436}, !- Space Name
  Outdoors,                               !- Outside Boundary Condition
  ,                                       !- Outside Boundary Condition Object
  SunExposed,                             !- Sun Exposure
  WindExposed,                            !- Wind Exposure
  ,                                       !- View Factor to Ground
  ,                                       !- Number of Vertices
  30, 10, 5,                              !- X,Y,Z Vertex 1 {m}
  30, 20, 5,                              !- X,Y,Z Vertex 2 {m}
  20, 20, 5,                              !- X,Y,Z Vertex 3 {m}
  20, 10, 5;                              !- X,Y,Z Vertex 4 {m}

OS:Space,
  {93071f14-fe97-4529-ace2-4c55b1932bc6}, !- Handle
  Space 3,                                !- Name
  {cb0f4b8e-2b90-4aea-95f1-b3a7ccdc103e}, !- Space Type Name
  ,                                       !- Default Construction Set Name
  ,                                       !- Default Schedule Set Name
  ,                                       !- Direction of Relative North {deg}
  ,                                       !- X Origin {m}
  ,                                       !- Y Origin {m}
  ,                                       !- Z Origin {m}
  {1e82ef63-dac3-47af-af8b-c0da89141d29}, !- Building Story Name
  {0d792b96-5a21-480e-808f-33dd983c1c9d}; !- Thermal Zone Name

OS:Surface,
  {55a7ff38-b617-4442-8768-7f31e526887b}, !- Handle
  Surface 14,                             !- Name
  Floor,                                  !- Surface Type
  ,                                       !- Construction Name
  {93071f14-fe97-4529-ace2-4c55b1932bc6}, !- Space Name
  Ground,                                 !- Outside Boundary Condition
  ,                                       !- Outside Boundary Condition Object
  NoSun,                                  !- Sun Exposure
  NoWind,                                 !- Wind Exposure
  ,                                       !- View Factor to Ground
  ,                                       !- Number of Vertices
  20, 0, 0,                               !- X,Y,Z Vertex 1 {m}
  20, 10, 0,                              !- X,Y,Z Vertex 2 {m}
  30, 10, 0,                              !- X,Y,Z Vertex 3 {m}
  30, 0, 0;                               !- X,Y,Z Vertex 4 {m}

OS:Surface,
  {64ffa615-9363-413b-b746-1237d4c55a3c}, !- Handle
  Surface 15,                             !- Name
  Wall,                                   !- Surface Type
  ,                                       !- Construction Name
  {93071f14-fe97-4529-ace2-4c55b1932bc6}, !- Space Name
  Surface,                                !- Outside Boundary Condition
  {164e39d0-4e35-47d2-acc4-0c719d23708e}, !- Outside Boundary Condition Object
  NoSun,                                  !- Sun Exposure
  NoWind,                                 !- Wind Exposure
  ,                                       !- View Factor to Ground
  ,                                       !- Number of Vertices
  20, 10, 5,                              !- X,Y,Z Vertex 1 {m}
  20, 10, 0,                              !- X,Y,Z Vertex 2 {m}
  20, 0, 0,                               !- X,Y,Z Vertex 3 {m}
  20, 0, 5;                               !- X,Y,Z Vertex 4 {m}

OS:Surface,
  {49d37e7b-923a-4940-a0a0-771a7642c839}, !- Handle
  Surface 16,                             !- Name
  Wall,                                   !- Surface Type
  ,                                       !- Construction Name
  {93071f14-fe97-4529-ace2-4c55b1932bc6}, !- Space Name
  Surface,                                !- Outside Boundary Condition
  {8bd64225-9e97-4f7e-9332-4d3a5dd7c72d}, !- Outside Boundary Condition Object
  NoSun,                                  !- Sun Exposure
  NoWind,                                 !- Wind Exposure
  ,                                       !- View Factor to Ground
  ,                                       !- Number of Vertices
  30, 10, 5,                              !- X,Y,Z Vertex 1 {m}
  30, 10, 0,                              !- X,Y,Z Vertex 2 {m}
  20, 10, 0,                              !- X,Y,Z Vertex 3 {m}
  20, 10, 5;                              !- X,Y,Z Vertex 4 {m}

OS:Surface,
  {f4a9d1ed-a86a-408e-b399-8265c57ebef2}, !- Handle
  Surface 17,                             !- Name
  Wall,                                   !- Surface Type
  ,                                       !- Construction Name
  {93071f14-fe97-4529-ace2-4c55b1932bc6}, !- Space Name
  Outdoors,                               !- Outside Boundary Condition
  ,                                       !- Outside Boundary Condition Object
  SunExposed,                             !- Sun Exposure
  WindExposed,                            !- Wind Exposure
  ,                                       !- View Factor to Ground
  ,                                       !- Number of Vertices
  30, 0, 5,                               !- X,Y,Z Vertex 1 {m}
  30, 0, 0,                               !- X,Y,Z Vertex 2 {m}
  30, 10, 0,                              !- X,Y,Z Vertex 3 {m}
  30, 10, 5;                              !- X,Y,Z Vertex 4 {m}

OS:Surface,
  {f33040ab-2af4-42ce-8af5-2f61244a6492}, !- Handle
  Surface 18,                             !- Name
  Wall,                                   !- Surface Type
  ,                                       !- Construction Name
  {93071f14-fe97-4529-ace2-4c55b1932bc6}, !- Space Name
  Outdoors,                               !- Outside Boundary Condition
  ,                                       !- Outside Boundary Condition Object
  SunExposed,                             !- Sun Exposure
  WindExposed,                            !- Wind Exposure
  ,                                       !- View Factor to Ground
  ,                                       !- Number of Vertices
  20, 0, 5,                               !- X,Y,Z Vertex 1 {m}
  20, 0, 0,                               !- X,Y,Z Vertex 2 {m}
  30, 0, 0,                               !- X,Y,Z Vertex 3 {m}
  30, 0, 5;                               !- X,Y,Z Vertex 4 {m}

OS:Surface,
  {ba12126f-8a8e-4ecc-b0b0-8414eb8aecc5}, !- Handle
  Surface 19,                             !- Name
  RoofCeiling,                            !- Surface Type
  ,                                       !- Construction Name
  {93071f14-fe97-4529-ace2-4c55b1932bc6}, !- Space Name
  Outdoors,                               !- Outside Boundary Condition
  ,                                       !- Outside Boundary Condition Object
  SunExposed,                             !- Sun Exposure
  WindExposed,                            !- Wind Exposure
  ,                                       !- View Factor to Ground
  ,                                       !- Number of Vertices
  30, 0, 5,                               !- X,Y,Z Vertex 1 {m}
  30, 10, 5,                              !- X,Y,Z Vertex 2 {m}
  20, 10, 5,                              !- X,Y,Z Vertex 3 {m}
  20, 0, 5;                               !- X,Y,Z Vertex 4 {m}

OS:Material,
  {cbe3d77c-d1bb-4ac5-8c75-c13bd52d01a6}, !- Handle
  Plywood - 5/8in,                        !- Name
  Smooth,                                 !- Roughness
  0.015875,                               !- Thickness {m}
  0.12,                                   !- Conductivity {W/m-K}
  544,                                    !- Density {kg/m3}
  1210;                                   !- Specific Heat {J/kg-K}

OS:Material,
  {068ec20c-b60f-4d09-a71c-7c80d87e95c9}, !- Handle
  Expanded Polystyrene - 2in,             !- Name
  Smooth,                                 !- Roughness
  0.0508,                                 !- Thickness {m}
  0.0352,                                 !- Conductivity {W/m-K}
  24,                                     !- Density {kg/m3}
  1210;                                   !- Specific Heat {J/kg-K}

OS:Material,
  {f2215bdc-7051-478f-baf1-c08a35ee5cdd}, !- Handle
  Heavyweight Concrete – 6in,             !- Name
  Smooth,                                 !- Roughness
  0.1524,                                 !- Thickness {m}
  1.95,                                   !- Conductivity {W/m-K}
  2242.6,                                 !- Density {kg/m3}
  900;                                    !- Specific Heat {J/kg-K}

OS:WindowMaterial:SimpleGlazingSystem,
  {8a0041e2-0b55-4777-9895-06eb21673c1c}, !- Handle
  Glass,                                  !- Name
  0.1,                                    !- U-Factor {W/m2-K}
  0.3,                                    !- Solar Heat Gain Coefficient
  0.7;                                    !- Visible Transmittance

OS:Construction,
  {210b5cf3-3426-4a32-a9a8-904e2baf25f2}, !- Handle
  Ext Wall Construction,                  !- Name
  ,                                       !- Surface Rendering Name
  {cbe3d77c-d1bb-4ac5-8c75-c13bd52d01a6}, !- Layer 1
  {068ec20c-b60f-4d09-a71c-7c80d87e95c9}, !- Layer 2
  {f2215bdc-7051-478f-baf1-c08a35ee5cdd}; !- Layer 3

OS:Construction,
  {b5f8203c-68dc-43e4-9069-10f893cc7575}, !- Handle
  Int Wall Construction,                  !- Name
  ,                                       !- Surface Rendering Name
  {cbe3d77c-d1bb-4ac5-8c75-c13bd52d01a6}, !- Layer 1
  {cbe3d77c-d1bb-4ac5-8c75-c13bd52d01a6}; !- Layer 2

OS:Construction,
  {3b798df9-b83e-4606-b650-810d80cba207}, !- Handle
  Roof Construction,                      !- Name
  ,                                       !- Surface Rendering Name
  {cbe3d77c-d1bb-4ac5-8c75-c13bd52d01a6}, !- Layer 1
  {068ec20c-b60f-4d09-a71c-7c80d87e95c9}, !- Layer 2
  {068ec20c-b60f-4d09-a71c-7c80d87e95c9}, !- Layer 3
  {cbe3d77c-d1bb-4ac5-8c75-c13bd52d01a6}; !- Layer 4

OS:Construction,
  {e4b2f47a-18f0-4b78-b964-674ac540ae74}, !- Handle
  Window Construction,                    !- Name
  ,                                       !- Surface Rendering Name
  {8a0041e2-0b55-4777-9895-06eb21673c1c}; !- Layer 1

OS:DefaultSurfaceConstructions,
  {a3267773-e3f4-4029-a941-e24b44e8a013}, !- Handle
  Default Surface Constructions 1,        !- Name
  {210b5cf3-3426-4a32-a9a8-904e2baf25f2}, !- Floor Construction Name
  {210b5cf3-3426-4a32-a9a8-904e2baf25f2}, !- Wall Construction Name
  {3b798df9-b83e-4606-b650-810d80cba207}; !- Roof Ceiling Construction Name

OS:DefaultSurfaceConstructions,
  {7f0542c9-3b69-4b06-af6e-11f4da33682f}, !- Handle
  Default Surface Constructions 2,        !- Name
  {b5f8203c-68dc-43e4-9069-10f893cc7575}, !- Floor Construction Name
  {b5f8203c-68dc-43e4-9069-10f893cc7575}, !- Wall Construction Name
  ;                                       !- Roof Ceiling Construction Name

OS:DefaultSubSurfaceConstructions,
  {445b08f4-6bdd-4e7b-a08c-3587d0410f38}, !- Handle
  Default Sub Surface Constructions 1,    !- Name
  {e4b2f47a-18f0-4b78-b964-674ac540ae74}, !- Fixed Window Construction Name
  ,                                       !- Operable Window Construction Name
  {e4b2f47a-18f0-4b78-b964-674ac540ae74}, !- Door Construction Name
  ,                                       !- Glass Door Construction Name
  ,                                       !- Overhead Door Construction Name
  ,                                       !- Skylight Construction Name
  ,                                       !- Tubular Daylight Dome Construction Name
  ;                                       !- Tubular Daylight Diffuser Construction Name

OS:DefaultConstructionSet,
  {44bec4cf-9221-41bd-b210-eabbde9aa2f8}, !- Handle
  Building Default Constructions,         !- Name
  {a3267773-e3f4-4029-a941-e24b44e8a013}, !- Default Exterior Surface Constructions Name
  {7f0542c9-3b69-4b06-af6e-11f4da33682f}, !- Default Interior Surface Constructions Name
  {a3267773-e3f4-4029-a941-e24b44e8a013}, !- Default Ground Contact Surface Constructions Name
  {445b08f4-6bdd-4e7b-a08c-3587d0410f38}, !- Default Exterior SubSurface Constructions Name
  {445b08f4-6bdd-4e7b-a08c-3587d0410f38}, !- Default Interior SubSurface Constructions Name
  ,                                       !- Interior Partition Construction Name
  ,                                       !- Space Shading Construction Name
  ,                                       !- Building Shading Construction Name
  ;                                       !- Site Shading Construction Name

OS:Building,
  {740f303b-7361-4621-bd04-509acf305947}, !- Handle
  Building 1,                             !- Name
  ,                                       !- Building Sector Type
  ,                                       !- North Axis {deg}
  ,                                       !- Nominal Floor to Floor Height {m}
  ,                                       !- Space Type Name
  {44bec4cf-9221-41bd-b210-eabbde9aa2f8}, !- Default Construction Set Name
  ;                                       !- Default Schedule Set Name

OS:People:Definition,
  {bb6201b3-ac4b-43fb-ba6c-61bf826567bf}, !- Handle
  People Def - 1 person/200sf,            !- Name
  People/Area,                            !- Number of People Calculation Method
  ,                                       !- Number of People {people}
  0.05382,                                !- People per Space Floor Area {person/m2}
  ,                                       !- Space Floor Area per Person {m2/person}
  0.3,                                    !- Fraction Radiant
  0.1;                                    !- Sensible Heat Fraction

OS:Lights:Definition,
  {58c5fd6f-46c8-4fcb-b937-27f28e073b88}, !- Handle
  Lights Def - 1 W/sf,                    !- Name
  Watts/Area,                             !- Design Level Calculation Method
  ,                                       !- Lighting Level {W}
  11,                                     !- Watts per Space Floor Area {W/m2}
  ,                                       !- Watts per Person {W/person}
  0.3,                                    !- Fraction Radiant
  0.2,                                    !- Fraction Visible
  0;                                      !- Return Air Fraction

OS:Lights:Definition,
  {3bc7d673-5007-4955-b2fe-0818b131c213}, !- Handle
  Lights Def - 2 W/sf,                    !- Name
  Watts/Area,                             !- Design Level Calculation Method
  ,                                       !- Lighting Level {W}
  22,                                     !- Watts per Space Floor Area {W/m2}
  ,                                       !- Watts per Person {W/person}
  0.3,                                    !- Fraction Radiant
  0.2,                                    !- Fraction Visible
  0;                                      !- Return Air Fraction

OS:DesignSpecification:OutdoorAir,
  {83157d52-fdfe-464e-9ab4-b91f47c47068}, !- Handle
  Design OA,                              !- Name
  ,                                       !- Outdoor Air Method
  0.010765,                               !- Outdoor Air Flow per Person {m3/s-person}
  ,                                       !- Outdoor Air Flow per Floor Area {m3/s-m2}
  ,                                       !- Outdoor Air Flow Rate {m3/s}
  ,                                       !- Outdoor Air Flow Air Changes per Hour {1/hr}
  ;                                       !- Outdoor Air Flow Rate Fraction Schedule Name

OS:SpaceType,
  {df62f45e-0892-4cf4-a7e7-aee3f2674735}, !- Handle
  Space Type A,                           !- Name
  ,                                       !- Default Construction Set Name
  {b88753a5-2a43-43a7-b26e-005eedd060d7}, !- Default Schedule Set Name
  ,                                       !- Group Rendering Name
  {83157d52-fdfe-464e-9ab4-b91f47c47068}; !- Design Specification Outdoor Air Object Name

OS:People,
  {4124ed3d-99de-4427-8086-92372f8643ae}, !- Handle
  People for Space Type A,                !- Name
  {bb6201b3-ac4b-43fb-ba6c-61bf826567bf}, !- People Definition Name
  {df62f45e-0892-4cf4-a7e7-aee3f2674735}; !- Space or SpaceType Name

OS:Lights,
  {b208c2ea-3b09-4444-a69a-06e1a9f52fd2}, !- Handle
  Lights for Space Type A,                !- Name
  {58c5fd6f-46c8-4fcb-b937-27f28e073b88}, !- Lights Definition Name
  {df62f45e-0892-4cf4-a7e7-aee3f2674735}; !- Space or SpaceType Name

OS:SpaceType,