
OS:Version,
  {40504f2a-41db-42b3-b3e9-7d79e68a02ba}, !- Handle
  1.2.5;                                  !- Version Identifier

OS:BuildingStory,
  {9f062a68-327d-48af-88c3-2b52de7ee977}, !- Handle
  First Floor,                            !- Name
  ,                                       !- Nominal Z Coordinate {m}
  5,                                      !- Nominal Floor to Floor Height {m}
  ,                                       !- Default Construction Set Name
  ,                                       !- Default Schedule Set Name
  ;                                       !- Group Rendering Name

OS:Space,
  {afaabf21-a3cc-4106-afb5-acbb05c84ddd}, !- Handle
  Space 1,                                !- Name
  ,                                       !- Space Type Name
  ,                                       !- Default Construction Set Name
  ,                                       !- Default Schedule Set Name
  ,                                       !- Direction of Relative North {deg}
  ,                                       !- X Origin {m}
  ,                                       !- Y Origin {m}
  ,                                       !- Z Origin {m}
  {9f062a68-327d-48af-88c3-2b52de7ee977}; !- Building Story Name

OS:Surface,
  {dbab4366-a405-4eb8-baca-5d2c28e3d046}, !- Handle
  Surface 1,                              !- Name
  Floor,                                  !- Surface Type
  ,                                       !- Construction Name
  {afaabf21-a3cc-4106-afb5-acbb05c84ddd}, !- Space Name
  Ground,                                 !- Outside Boundary Condition
  ,                                       !- Outside Boundary Condition Object
  NoSun,                                  !- Sun Exposure
  NoWind,                                 !- Wind Exposure
  ,                                       !- View Factor to Ground
  ,                                       !- Number of Vertices
  0, 0, 0,                                !- X,Y,Z Vertex 1 {m}
  0, 20, 0,                               !- X,Y,Z Vertex 2 {m}
  20, 20, 0,                              !- X,Y,Z Vertex 3 {m}
  20, 10, 0,                              !- X,Y,Z Vertex 4 {m}
  20, 0, 0;                               !- X,Y,Z Vertex 5 {m}

OS:Surface,
  {160d9888-d91c-433f-a024-82881beca02b}, !- Handle
  Surface 2,                              !- Name
  Wall,                                   !- Surface Type
  ,                                       !- Construction Name
  {afaabf21-a3cc-4106-afb5-acbb05c84ddd}, !- Space Name
  Outdoors,                               !- Outside Boundary Condition
  ,                                       !- Outside Boundary Condition Object
  SunExposed,                             !- Sun Exposure
  WindExposed,                            !- Wind Exposure
  ,                                       !- View Factor to Ground
  ,                                       !- Number of Vertices
  0, 20, 5,                               !- X,Y,Z Vertex 1 {m}
  0, 20, 0,                               !- X,Y,Z Vertex 2 {m}
  0, 0, 0,                                !- X,Y,Z Vertex 3 {m}
  0, 0, 5;                                !- X,Y,Z Vertex 4 {m}

OS:Surface,
  {882e9be2-a3bd-43c6-bc75-a35212d949cb}, !- Handle
  Surface 3,                              !- Name
  Wall,                                   !- Surface Type
  ,                                       !- Construction Name
  {afaabf21-a3cc-4106-afb5-acbb05c84ddd}, !- Space Name
  Outdoors,                               !- Outside Boundary Condition
  ,                                       !- Outside Boundary Condition Object
  SunExposed,                             !- Sun Exposure
  WindExposed,                            !- Wind Exposure
  ,                                       !- View Factor to Ground
  ,                                       !- Number of Vertices
  20, 20, 5,                              !- X,Y,Z Vertex 1 {m}
  20, 20, 0,                              !- X,Y,Z Vertex 2 {m}
  0, 20, 0,                               !- X,Y,Z Vertex 3 {m}
  0, 20, 5;                               !- X,Y,Z Vertex 4 {m}

OS:Surface,
  {a7bbe47e-e7be-423d-a968-2daf2ea28432}, !- Handle
  Surface 4,                              !- Name
  Wall,                                   !- Surface Type
  ,                                       !- Construction Name
  {afaabf21-a3cc-4106-afb5-acbb05c84ddd}, !- Space Name
  Surface,                                !- Outside Boundary Condition
  {43b6d73f-fdad-459c-baae-38d7190bf143}, !- Outside Boundary Condition Object
  NoSun,                                  !- Sun Exposure
  NoWind,                                 !- Wind Exposure
  ,                                       !- View Factor to Ground
  ,                                       !- Number of Vertices
  20, 10, 5,                              !- X,Y,Z Vertex 1 {m}
  20, 10, 0,                              !- X,Y,Z Vertex 2 {m}
  20, 20, 0,                              !- X,Y,Z Vertex 3 {m}
  20, 20, 5;                              !- X,Y,Z Vertex 4 {m}

OS:Surface,
  {10b3c0a6-f369-4564-a6b9-d6a115d5acd6}, !- Handle
  Surface 5,                              !- Name
  Wall,                                   !- Surface Type
  ,                                       !- Construction Name
  {afaabf21-a3cc-4106-afb5-acbb05c84ddd}, !- Space Name
  Surface,                                !- Outside Boundary Condition
  {25fa926a-eb1b-47d3-b3dd-c8733b1a258f}, !- Outside Boundary Condition Object
  NoSun,                                  !- Sun Exposure
  NoWind,                                 !- Wind Exposure
  ,                                       !- View Factor to Ground
  ,                                       !- Number of Vertices
  20, 0, 5,                               !- X,Y,Z Vertex 1 {m}
  20, 0, 0,                               !- X,Y,Z Vertex 2 {m}
  20, 10, 0,                              !- X,Y,Z Vertex 3 {m}
  20, 10, 5;                              !- X,Y,Z Vertex 4 {m}

OS:Surface,
  {d76a4a4c-3f95-40ff-86f2-c26875157f28}, !- Handle
  Surface 6,                              !- Name
  Wall,                                   !- Surface Type
  ,                                       !- Construction Name
  {afaabf21-a3cc-4106-afb5-acbb05c84ddd}, !- Space Name
  Outdoors,                               !- Outside Boundary Condition
  ,                                       !- Outside Boundary Condition Object
  SunExposed,                             !- Sun Exposure
  WindExposed,                            !- Wind Exposure
  ,                                       !- View Factor to Ground
  ,                                       !- Number of Vertices
  0, 0, 5,                                !- X,Y,Z Vertex 1 {m}
  0, 0, 0,                                !- X,Y,Z Vertex 2 {m}
  20, 0, 0,                               !- X,Y,Z Vertex 3 {m}
  20, 0, 5;                               !- X,Y,Z Vertex 4 {m}

OS:Surface,
  {fb0e4ac7-9697-4db7-9ed7-d3ab6bf81391}, !- Handle
  Surface 7,                              !- Name
  RoofCeiling,                            !- Surface Type
  ,                                       !- Construction Name
  {afaabf21-a3cc-4106-afb5-acbb05c84ddd}, !- Space Name
  Outdoors,                               !- Outside Boundary Condition
  ,                                       !- Outside Boundary Condition Object
  SunExposed,                             !- Sun Exposure
  WindExposed,                            !- Wind Exposure
  ,                                       !- View Factor to Ground
  ,                                       !- Number of Vertices
  20, 0, 5,                               !- X,Y,Z Vertex 1 {m}
  20, 10, 5,                              !- X,Y,Z Vertex 2 {m}
  20, 20, 5,                              !- X,Y,Z Vertex 3 {m}
  0, 20, 5,                               !- X,Y,Z Vertex 4 {m}
  0, 0, 5;                                !- X,Y,Z Vertex 5 {m}

OS:Space,
  {8e40bcfb-f8e9-46ec-9562-b10be5fbd42b}, !- Handle
  Space 2,                                !- Name
  ,                                       !- Space Type Name
  ,                                       !- Default Construction Set Name
  ,                                       !- Default Schedule Set Name
  ,                                       !- Direction of Relative North {deg}
  ,                                       !- X Origin {m}
  ,                                       !- Y Origin {m}
  ,                                       !- Z Origin {m}
  {9f062a68-327d-48af-88c3-2b52de7ee977}; !- Building Story Name

OS:Surface,
  {34351c31-baef-41be-a778-cf9a5a35b696}, !- Handle
  Surface 8,                              !- Name
  Floor,                                  !- Surface Type
  ,                                       !- Construction Name
  {8e40bcfb-f8e9-46ec-9562-b10be5fbd42b}, !- Space Name
  Ground,                                 !- Outside Boundary Condition
  ,                                       !- Outside Boundary Condition Object
  NoSun,                                  !- Sun Exposure
  NoWind,                                 !- Wind Exposure
  ,                                       !- View Factor to Ground
  ,                                       !- Number of Vertices
  20, 10, 0,                              !- X,Y,Z Vertex 1 {m}
  20, 20, 0,                              !- X,Y,Z Vertex 2 {m}
  30, 20, 0,                              !- X,Y,Z Vertex 3 {m}
  30, 10, 0;                              !- X,Y,Z Vertex 4 {m}

OS:Surface,
  {43b6d73f-fdad-459c-baae-38d7190bf143}, !- Handle
  Surface 9,                              !- Name
  Wall,                                   !- Surface Type
  ,                                       !- Construction Name
  {8e40bcfb-f8e9-46ec-9562-b10be5fbd42b}, !- Space Name
  Surface,                                !- Outside Boundary Condition
  {a7bbe47e-e7be-423d-a968-2daf2ea28432}, !- Outside Boundary Condition Object
  NoSun,                                  !- Sun Exposure
  NoWind,                                 !- Wind Exposure
  ,                                       !- View Factor to Ground
  ,                                       !- Number of Vertices
  20, 20, 5,                              !- X,Y,Z Vertex 1 {m}
  20, 20, 0,                              !- X,Y,Z Vertex 2 {m}
  20, 10, 0,                              !- X,Y,Z Vertex 3 {m}
  20, 10, 5;                              !- X,Y,Z Vertex 4 {m}

OS:Surface,
  {626e9630-2e29-4d2e-ba5b-554bf941c387}, !- Handle
  Surface 10,                             !- Name
  Wall,                                   !- Surface Type
  ,                                       !- Construction Name
  {8e40bcfb-f8e9-46ec-9562-b10be5fbd42b}, !- Space Name
  Outdoors,                               !- Outside Boundary Condition
  ,                                       !- Outside Boundary Condition Object
  SunExposed,                             !- Sun Exposure
  WindExposed,                            !- Wind Exposure
  ,                                       !- View Factor to Ground
  ,                                       !- Number of Vertices
  30, 20, 5,                              !- X,Y,Z Vertex 1 {m}
  30, 20, 0,                              !- X,Y,Z Vertex 2 {m}
  20, 20, 0,                              !- X,Y,Z Vertex 3 {m}
  20, 20, 5;                              !- X,Y,Z Vertex 4 {m}

OS:Surface,
  {a3a9cb03-fe57-4cf8-96d5-16ecfc099761}, !- Handle
  Surface 11,                             !- Name
  Wall,                                   !- Surface Type
  ,                                       !- Construction Name
  {8e40bcfb-f8e9-46ec-9562-b10be5fbd42b}, !- Space Name
  Outdoors,                               !- Outside Boundary Condition
  ,                                       !- Outside Boundary Condition Object
  SunExposed,                             !- Sun Exposure
  WindExposed,                            !- Wind Exposure
  ,                                       !- View Factor to Ground
  ,                                       !- Number of Vertices
  30, 10, 5,                              !- X,Y,Z Vertex 1 {m}
  30, 10, 0,                              !- X,Y,Z Vertex 2 {m}
  30, 20, 0,                              !- X,Y,Z Vertex 3 {m}
  30, 20, 5;                              !- X,Y,Z Vertex 4 {m}

OS:Surface,
  {4a20e064-49c7-4021-8c33-a967de0e2b68}, !- Handle
  Surface 12,                             !- Name
  Wall,                                   !- Surface Type
  ,                                       !- Construction Name
  {8e40bcfb-f8e9-46ec-9562-b10be5fbd42b}, !- Space Name
  Surface,                                !- Outside Boundary Condition
  {b9adad6e-5b77-4972-b55d-043f50e9b5bf}, !- Outside Boundary Condition Object
  NoSun,                                  !- Sun Exposure
  NoWind,                                 !- Wind Exposure
  ,                                       !- View Factor to Ground
  ,                                       !- Number of Vertices
  20, 10, 5,                              !- X,Y,Z Vertex 1 {m}
  20, 10, 0,                              !- X,Y,Z Vertex 2 {m}
  30, 10, 0,                              !- X,Y,Z Vertex 3 {m}
  30, 10, 5;                              !- X,Y,Z Vertex 4 {m}

OS:Surface,
  {7a29e066-6684-408c-8ccb-a8a706d33340}, !- Handle
  Surface 13,                             !- Name
  RoofCeiling,                            !- Surface Type
  ,                                       !- Construction Name
  {8e40bcfb-f8e9-46ec-9562-b10be5fbd42b}, !- Space Name
  Outdoors,                               !- Outside Boundary Condition
  ,                                       !- Outside Boundary Condition Object
  SunExposed,                             !- Sun Exposure
  WindExposed,                            !- Wind Exposure
  ,                                       !- View Factor to Ground
  ,                                       !- Number of Vertices
  30, 10, 5,                              !- X,Y,Z Vertex 1 {m}
  30, 20, 5,                              !- X,Y,Z Vertex 2 {m}
  20, 20, 5,                              !- X,Y,Z Vertex 3 {m}
  20, 10, 5;                              !- X,Y,Z Vertex 4 {m}

OS:Space,
  {4d222cf5-1f63-4197-9bca-c7533c2ebd59}, !- Handle
  Space 3,                                !- Name
  ,                                       !- Space Type Name
  ,                                       !- Default Construction Set Name
  ,                                       !- Default Schedule Set Name
  ,                                       !- Direction of Relative North {deg}
  ,                                       !- X Origin {m}
  ,                                       !- Y Origin {m}
  ,                                       !- Z Origin {m}
  {9f062a68-327d-48af-88c3-2b52de7ee977}; !- Building Story Name

OS:Surface,
  {69d36366-d161-42bd-abe0-c4720a966aa7}, !- Handle
  Surface 14,                             !- Name
  Floor,                                  !- Surface Type
  ,                                       !- Construction Name
  {4d222cf5-1f63-4197-9bca-c7533c2ebd59}, !- Space Name
  Ground,                                 !- Outside Boundary Condition
  ,                                       !- Outside Boundary Condition Object
  NoSun,                                  !- Sun Exposure
  NoWind,                                 !- Wind Exposure
  ,                                       !- View Factor to Ground
  ,                                       !- Number of Vertices
  20, 0, 0,                               !- X,Y,Z Vertex 1 {m}
  20, 10, 0,                              !- X,Y,Z Vertex 2 {m}
  30, 10, 0,                              !- X,Y,Z Vertex 3 {m}
  30, 0, 0;                               !- X,Y,Z Vertex 4 {m}

OS:Surface,
  {25fa926a-eb1b-47d3-b3dd-c8733b1a258f}, !- Handle
  Surface 15,                             !- Name
  Wall,                                   !- Surface Type
  ,                                       !- Construction Name
  {4d222cf5-1f63-4197-9bca-c7533c2ebd59}, !- Space Name
  Surface,                                !- Outside Boundary Condition
  {10b3c0a6-f369-4564-a6b9-d6a115d5acd6}, !- Outside Boundary Condition Object
  NoSun,                                  !- Sun Exposure
  NoWind,                                 !- Wind Exposure
  ,                                       !- View Factor to Ground
  ,                                       !- Number of Vertices
  20, 10, 5,                              !- X,Y,Z Vertex 1 {m}
  20, 10, 0,                              !- X,Y,Z Vertex 2 {m}
  20, 0, 0,                               !- X,Y,Z Vertex 3 {m}
  20, 0, 5;                               !- X,Y,Z Vertex 4 {m}

OS:Surface,
  {b9adad6e-5b77-4972-b55d-043f50e9b5bf}, !- Handle
  Surface 16,                             !- Name
  Wall,                                   !- Surface Type
  ,                                       !- Construction Name
  {4d222cf5-1f63-4197-9bca-c7533c2ebd59}, !- Space Name
  Surface,                                !- Outside Boundary Condition
  {4a20e064-49c7-4021-8c33-a967de0e2b68}, !- Outside Boundary Condition Object
  NoSun,                                  !- Sun Exposure
  NoWind,                                 !- Wind Exposure
  ,                                       !- View Factor to Ground
  ,                                       !- Number of Vertices
  30, 10, 5,                              !- X,Y,Z Vertex 1 {m}
  30, 10, 0,                              !- X,Y,Z Vertex 2 {m}
  20, 10, 0,                              !- X,Y,Z Vertex 3 {m}
  20, 10, 5;                              !- X,Y,Z Vertex 4 {m}

OS:Surface,
  {e109d11f-321b-403f-8ee3-595ade687748}, !- Handle
  Surface 17,                             !- Name
  Wall,                                   !- Surface Type
  ,                                       !- Construction Name
  {4d222cf5-1f63-4197-9bca-c7533c2ebd59}, !- Space Name
  Outdoors,                               !- Outside Boundary Condition
  ,                                       !- Outside Boundary Condition Object
  SunExposed,                             !- Sun Exposure
  WindExposed,                            !- Wind Exposure
  ,                                       !- View Factor to Ground
  ,                                       !- Number of Vertices
  30, 0, 5,                               !- X,Y,Z Vertex 1 {m}
  30, 0, 0,                               !- X,Y,Z Vertex 2 {m}
  30, 10, 0,                              !- X,Y,Z Vertex 3 {m}
  30, 10, 5;                              !- X,Y,Z Vertex 4 {m}

OS:Surface,
  {2f526b07-dcf3-4db2-a52a-bae81aba825b}, !- Handle
  Surface 18,                             !- Name
  Wall,                                   !- Surface Type
  ,                                       !- Construction Name
  {4d222cf5-1f63-4197-9bca-c7533c2ebd59}, !- Space Name
  Outdoors,                               !- Outside Boundary Condition
  ,                                       !- Outside Boundary Condition Object
  SunExposed,                             !- Sun Exposure
  WindExposed,                            !- Wind Exposure
  ,                                       !- View Factor to Ground
  ,                                       !- Number of Vertices
  20, 0, 5,                               !- X,Y,Z Vertex 1 {m}
  20, 0, 0,                               !- X,Y,Z Vertex 2 {m}
  30, 0, 0,                               !- X,Y,Z Vertex 3 {m}
  30, 0, 5;                               !- X,Y,Z Vertex 4 {m}

OS:Surface,
  {fee1f8e5-ba03-425d-a998-884fe2d95d61}, !- Handle
  Surface 19,                             !- Name
  RoofCeiling,                            !- Surface Type
  ,                                       !- Construction Name
  {4d222cf5-1f63-4197-9bca-c7533c2ebd59}, !- Space Name
  Outdoors,                               !- Outside Boundary Condition
  ,                                       !- Outside Boundary Condition Object
  SunExposed,                             !- Sun Exposure
  WindExposed,                            !- Wind Exposure
  ,                                       !- View Factor to Ground
  ,                                       !- Number of Vertices
  30, 0, 5,                               !- X,Y,Z Vertex 1 {m}
  30, 10, 5,                              !- X,Y,Z Vertex 2 {m}
  20, 10, 5,                              !- X,Y,Z Vertex 3 {m}
  20, 0, 5;                               !- X,Y,Z Vertex 4 {m}

