
OS:Version,
  {5ae60c7e-87c2-4ca4-babb-344528f08fb8}, !- Handle
  1.0.0;                                  !- Version Identifier

OS:BuildingStory,
  {1ba289f2-ab05-4856-b5cc-3c20764a55e2}, !- Handle
  First Floor},                           !- Name
  ,                                       !- Nominal Z Coordinate {m}
  5,                                      !- Nominal Floor to Floor Height {m}
  ,                                       !- Default Construction Set Name
  ,                                       !- Default Schedule Set Name
  ;                                       !- Group Rendering Name

OS:Space,
  {2c8cbcd5-705a-40a5-a79a-5c311b205a2b}, !- Handle
  Space 1,                                !- Name
  {26ad09a4-7f4e-4cb2-ba64-395e5152f37b}, !- Space Type Name
  ,                                       !- Default Construction Set Name
  ,                                       !- Default Schedule Set Name
  ,                                       !- Direction of Relative North {deg}
  ,                                       !- X Origin {m}
  ,                                       !- Y Origin {m}
  ,                                       !- Z Origin {m}
  {1ba289f2-ab05-4856-b5cc-3c20764a55e2}, !- Building Story Name
  {8b43fb6a-641e-408c-b581-fb7973ada457}; !- Thermal Zone Name

OS:Surface,
  {68b54d84-943a-4f96-8116-8120d6fcb8fb}, !- Handle
  Surface 1,                              !- Name
  Floor,                                  !- Surface Type
  ,                                       !- Construction Name
  {2c8cbcd5-705a-40a5-a79a-5c311b205a2b}, !- Space Name
  Ground,                                 !- Outside Boundary Condition
  ,                                       !- Outside Boundary Condition Object
  NoSun,                                  !- Sun Exposure
  NoWind,                                 !- Wind Exposure
  ,                                       !- View Factor to Ground
  ,                                       !- Number of Vertices
  0, 0, 0,                                !- X,Y,Z Vertex 1 {m}
  0, 20, 0,                               !- X,Y,Z Vertex 2 {m}
  20, 20, 0,                              !- X,Y,Z Vertex 3 {m}
  20, 10, 0,                              !- X,Y,Z Vertex 4 {m}
  20, 0, 0;                               !- X,Y,Z Vertex 5 {m}

OS:Surface,
  {c910ee51-a452-44e9-9aa5-f6701e84ac60}, !- Handle
  Surface 2,                              !- Name
  Wall,                                   !- Surface Type
  ,                                       !- Construction Name
  {2c8cbcd5-705a-40a5-a79a-5c311b205a2b}, !- Space Name
  Outdoors,                               !- Outside Boundary Condition
  ,                                       !- Outside Boundary Condition Object
  SunExposed,                             !- Sun Exposure
  WindExposed,                            !- Wind Exposure
  ,                                       !- View Factor to Ground
  ,                                       !- Number of Vertices
  0, 20, 5,                               !- X,Y,Z Vertex 1 {m}
  0, 20, 0,                               !- X,Y,Z Vertex 2 {m}
  0, 0, 0,                                !- X,Y,Z Vertex 3 {m}
  0, 0, 5;                                !- X,Y,Z Vertex 4 {m}

OS:Surface,
  {bfb7df09-c8ef-41d2-aed9-05dc3f4ececa}, !- Handle
  Surface 3,                              !- Name
  Wall,                                   !- Surface Type
  ,                                       !- Construction Name
  {2c8cbcd5-705a-40a5-a79a-5c311b205a2b}, !- Space Name
  Outdoors,                               !- Outside Boundary Condition
  ,                                       !- Outside Boundary Condition Object
  SunExposed,                             !- Sun Exposure
  WindExposed,                            !- Wind Exposure
  ,                                       !- View Factor to Ground
  ,                                       !- Number of Vertices
  20, 20, 5,                              !- X,Y,Z Vertex 1 {m}
  20, 20, 0,                              !- X,Y,Z Vertex 2 {m}
  0, 20, 0,                               !- X,Y,Z Vertex 3 {m}
  0, 20, 5;                               !- X,Y,Z Vertex 4 {m}

OS:Surface,
  {a91f56d2-07c4-4d3c-a3fd-f9c2fed0fb72}, !- Handle
  Surface 4,                              !- Name
  Wall,                                   !- Surface Type
  ,                                       !- Construction Name
  {2c8cbcd5-705a-40a5-a79a-5c311b205a2b}, !- Space Name
  Surface,                                !- Outside Boundary Condition
  {f719fac2-9dd7-4953-a74e-f7e42eb1effc}, !- Outside Boundary Condition Object
  NoSun,                                  !- Sun Exposure
  NoWind,                                 !- Wind Exposure
  ,                                       !- View Factor to Ground
  ,                                       !- Number of Vertices
  20, 10, 5,                              !- X,Y,Z Vertex 1 {m}
  20, 10, 0,                              !- X,Y,Z Vertex 2 {m}
  20, 20, 0,                              !- X,Y,Z Vertex 3 {m}
  20, 20, 5;                              !- X,Y,Z Vertex 4 {m}

OS:Surface,
  {45b6a6fc-e4ee-478e-b030-a611e3f9e4ca}, !- Handle
  Surface 5,                              !- Name
  Wall,                                   !- Surface Type
  ,                                       !- Construction Name
  {2c8cbcd5-705a-40a5-a79a-5c311b205a2b}, !- Space Name
  Surface,                                !- Outside Boundary Condition
  {fd5db3c6-7395-4b52-9524-5653e69bc89d}, !- Outside Boundary Condition Object
  NoSun,                                  !- Sun Exposure
  NoWind,                                 !- Wind Exposure
  ,                                       !- View Factor to Ground
  ,                                       !- Number of Vertices
  20, 0, 5,                               !- X,Y,Z Vertex 1 {m}
  20, 0, 0,                               !- X,Y,Z Vertex 2 {m}
  20, 10, 0,                              !- X,Y,Z Vertex 3 {m}
  20, 10, 5;                              !- X,Y,Z Vertex 4 {m}

OS:Surface,
  {8c6f2c0b-ba30-4fa5-9dc7-739398beaf61}, !- Handle
  Surface 6,                              !- Name
  Wall,                                   !- Surface Type
  ,                                       !- Construction Name
  {2c8cbcd5-705a-40a5-a79a-5c311b205a2b}, !- Space Name
  Outdoors,                               !- Outside Boundary Condition
  ,                                       !- Outside Boundary Condition Object
  SunExposed,                             !- Sun Exposure
  WindExposed,                            !- Wind Exposure
  ,                                       !- View Factor to Ground
  ,                                       !- Number of Vertices
  0, 0, 5,                                !- X,Y,Z Vertex 1 {m}
  0, 0, 0,                                !- X,Y,Z Vertex 2 {m}
  20, 0, 0,                               !- X,Y,Z Vertex 3 {m}
  20, 0, 5;                               !- X,Y,Z Vertex 4 {m}

OS:Surface,
  {3b1ecb58-f4f8-4c1a-9ad2-00746fe10bb6}, !- Handle
  Surface 7,                              !- Name
  RoofCeiling,                            !- Surface Type
  ,                                       !- Construction Name
  {2c8cbcd5-705a-40a5-a79a-5c311b205a2b}, !- Space Name
  Outdoors,                               !- Outside Boundary Condition
  ,                                       !- Outside Boundary Condition Object
  SunExposed,                             !- Sun Exposure
  WindExposed,                            !- Wind Exposure
  ,                                       !- View Factor to Ground
  ,                                       !- Number of Vertices
  20, 0, 5,                               !- X,Y,Z Vertex 1 {m}
  20, 10, 5,                              !- X,Y,Z Vertex 2 {m}
  20, 20, 5,                              !- X,Y,Z Vertex 3 {m}
  0, 20, 5,                               !- X,Y,Z Vertex 4 {m}
  0, 0, 5;                                !- X,Y,Z Vertex 5 {m}

OS:Space,
  {46019eaf-ace0-4c29-835c-ce230642e4d2}, !- Handle
  Space 2,                                !- Name
  {26ad09a4-7f4e-4cb2-ba64-395e5152f37b}, !- Space Type Name
  ,                                       !- Default Construction Set Name
  ,                                       !- Default Schedule Set Name
  ,                                       !- Direction of Relative North {deg}
  ,                                       !- X Origin {m}
  ,                                       !- Y Origin {m}
  ,                                       !- Z Origin {m}
  {1ba289f2-ab05-4856-b5cc-3c20764a55e2}, !- Building Story Name
  {7667067c-466b-4939-addb-a0475c9d56b7}; !- Thermal Zone Name

OS:Surface,
  {3ca12193-8a34-49cd-b19b-86731d3f5369}, !- Handle
  Surface 8,                              !- Name
  Floor,                                  !- Surface Type
  ,                                       !- Construction Name
  {46019eaf-ace0-4c29-835c-ce230642e4d2}, !- Space Name
  Ground,                                 !- Outside Boundary Condition
  ,                                       !- Outside Boundary Condition Object
  NoSun,                                  !- Sun Exposure
  NoWind,                                 !- Wind Exposure
  ,                                       !- View Factor to Ground
  ,                                       !- Number of Vertices
  20, 10, 0,                              !- X,Y,Z Vertex 1 {m}
  20, 20, 0,                              !- X,Y,Z Vertex 2 {m}
  30, 20, 0,                              !- X,Y,Z Vertex 3 {m}
  30, 10, 0;                              !- X,Y,Z Vertex 4 {m}

OS:Surface,
  {f719fac2-9dd7-4953-a74e-f7e42eb1effc}, !- Handle
  Surface 9,                              !- Name
  Wall,                                   !- Surface Type
  ,                                       !- Construction Name
  {46019eaf-ace0-4c29-835c-ce230642e4d2}, !- Space Name
  Surface,                                !- Outside Boundary Condition
  {a91f56d2-07c4-4d3c-a3fd-f9c2fed0fb72}, !- Outside Boundary Condition Object
  NoSun,                                  !- Sun Exposure
  NoWind,                                 !- Wind Exposure
  ,                                       !- View Factor to Ground
  ,                                       !- Number of Vertices
  20, 20, 5,                              !- X,Y,Z Vertex 1 {m}
  20, 20, 0,                              !- X,Y,Z Vertex 2 {m}
  20, 10, 0,                              !- X,Y,Z Vertex 3 {m}
  20, 10, 5;                              !- X,Y,Z Vertex 4 {m}

OS:Surface,
  {9f7a84ba-6bc6-4730-836b-530c55544060}, !- Handle
  Surface 10,                             !- Name
  Wall,                                   !- Surface Type
  ,                                       !- Construction Name
  {46019eaf-ace0-4c29-835c-ce230642e4d2}, !- Space Name
  Outdoors,                               !- Outside Boundary Condition
  ,                                       !- Outside Boundary Condition Object
  SunExposed,                             !- Sun Exposure
  WindExposed,                            !- Wind Exposure
  ,                                       !- View Factor to Ground
  ,                                       !- Number of Vertices
  30, 20, 5,                              !- X,Y,Z Vertex 1 {m}
  30, 20, 0,                              !- X,Y,Z Vertex 2 {m}
  20, 20, 0,                              !- X,Y,Z Vertex 3 {m}
  20, 20, 5;                              !- X,Y,Z Vertex 4 {m}

OS:Surface,
  {105f10a2-293f-4cb2-acc4-46ab2df39449}, !- Handle
  Surface 11,                             !- Name
  Wall,                                   !- Surface Type
  ,                                       !- Construction Name
  {46019eaf-ace0-4c29-835c-ce230642e4d2}, !- Space Name
  Outdoors,                               !- Outside Boundary Condition
  ,                                       !- Outside Boundary Condition Object
  SunExposed,                             !- Sun Exposure
  WindExposed,                            !- Wind Exposure
  ,                                       !- View Factor to Ground
  ,                                       !- Number of Vertices
  30, 10, 5,                              !- X,Y,Z Vertex 1 {m}
  30, 10, 0,                              !- X,Y,Z Vertex 2 {m}
  30, 20, 0,                              !- X,Y,Z Vertex 3 {m}
  30, 20, 5;                              !- X,Y,Z Vertex 4 {m}

OS:Surface,
  {0468f68d-3f3c-428a-906c-a7ae219948aa}, !- Handle
  Surface 12,                             !- Name
  Wall,                                   !- Surface Type
  ,                                       !- Construction Name
  {46019eaf-ace0-4c29-835c-ce230642e4d2}, !- Space Name
  Surface,                                !- Outside Boundary Condition
  {ec180fcb-1684-44b8-a3e5-c052e31a5daa}, !- Outside Boundary Condition Object
  NoSun,                                  !- Sun Exposure
  NoWind,                                 !- Wind Exposure
  ,                                       !- View Factor to Ground
  ,                                       !- Number of Vertices
  20, 10, 5,                              !- X,Y,Z Vertex 1 {m}
  20, 10, 0,                              !- X,Y,Z Vertex 2 {m}
  30, 10, 0,                              !- X,Y,Z Vertex 3 {m}
  30, 10, 5;                              !- X,Y,Z Vertex 4 {m}

OS:Surface,
  {c917edb9-2bc0-4906-a7c2-94a40cc05f6d}, !- Handle
  Surface 13,                             !- Name
  RoofCeiling,                            !- Surface Type
  ,                                       !- Construction Name
  {46019eaf-ace0-4c29-835c-ce230642e4d2}, !- Space Name
  Outdoors,                               !- Outside Boundary Condition
  ,                                       !- Outside Boundary Condition Object
  SunExposed,                             !- Sun Exposure
  WindExposed,                            !- Wind Exposure
  ,                                       !- View Factor to Ground
  ,                                       !- Number of Vertices
  30, 10, 5,                              !- X,Y,Z Vertex 1 {m}
  30, 20, 5,                              !- X,Y,Z Vertex 2 {m}
  20, 20, 5,                              !- X,Y,Z Vertex 3 {m}
  20, 10, 5;                              !- X,Y,Z Vertex 4 {m}

OS:Space,
  {9799bb4d-e1f9-4ee7-a2bb-c3305634ca53}, !- Handle
  Space 3,                                !- Name
  {82115ecf-4910-4f8f-b850-0c4888c07601}, !- Space Type Name
  ,                                       !- Default Construction Set Name
  ,                                       !- Default Schedule Set Name
  ,                                       !- Direction of Relative North {deg}
  ,                                       !- X Origin {m}
  ,                                       !- Y Origin {m}
  ,                                       !- Z Origin {m}
  {1ba289f2-ab05-4856-b5cc-3c20764a55e2}, !- Building Story Name
  {7667067c-466b-4939-addb-a0475c9d56b7}; !- Thermal Zone Name

OS:Surface,
  {993f76b5-3b7b-40d7-a103-088ffbffb6e8}, !- Handle
  Surface 14,                             !- Name
  Floor,                                  !- Surface Type
  ,                                       !- Construction Name
  {9799bb4d-e1f9-4ee7-a2bb-c3305634ca53}, !- Space Name
  Ground,                                 !- Outside Boundary Condition
  ,                                       !- Outside Boundary Condition Object
  NoSun,                                  !- Sun Exposure
  NoWind,                                 !- Wind Exposure
  ,                                       !- View Factor to Ground
  ,                                       !- Number of Vertices
  20, 0, 0,                               !- X,Y,Z Vertex 1 {m}
  20, 10, 0,                              !- X,Y,Z Vertex 2 {m}
  30, 10, 0,                              !- X,Y,Z Vertex 3 {m}
  30, 0, 0;                               !- X,Y,Z Vertex 4 {m}

OS:Surface,
  {fd5db3c6-7395-4b52-9524-5653e69bc89d}, !- Handle
  Surface 15,                             !- Name
  Wall,                                   !- Surface Type
  ,                                       !- Construction Name
  {9799bb4d-e1f9-4ee7-a2bb-c3305634ca53}, !- Space Name
  Surface,                                !- Outside Boundary Condition
  {45b6a6fc-e4ee-478e-b030-a611e3f9e4ca}, !- Outside Boundary Condition Object
  NoSun,                                  !- Sun Exposure
  NoWind,                                 !- Wind Exposure
  ,                                       !- View Factor to Ground
  ,                                       !- Number of Vertices
  20, 10, 5,                              !- X,Y,Z Vertex 1 {m}
  20, 10, 0,                              !- X,Y,Z Vertex 2 {m}
  20, 0, 0,                               !- X,Y,Z Vertex 3 {m}
  20, 0, 5;                               !- X,Y,Z Vertex 4 {m}

OS:Surface,
  {ec180fcb-1684-44b8-a3e5-c052e31a5daa}, !- Handle
  Surface 16,                             !- Name
  Wall,                                   !- Surface Type
  ,                                       !- Construction Name
  {9799bb4d-e1f9-4ee7-a2bb-c3305634ca53}, !- Space Name
  Surface,                                !- Outside Boundary Condition
  {0468f68d-3f3c-428a-906c-a7ae219948aa}, !- Outside Boundary Condition Object
  NoSun,                                  !- Sun Exposure
  NoWind,                                 !- Wind Exposure
  ,                                       !- View Factor to Ground
  ,                                       !- Number of Vertices
  30, 10, 5,                              !- X,Y,Z Vertex 1 {m}
  30, 10, 0,                              !- X,Y,Z Vertex 2 {m}
  20, 10, 0,                              !- X,Y,Z Vertex 3 {m}
  20, 10, 5;                              !- X,Y,Z Vertex 4 {m}

OS:Surface,
  {02484a0e-348d-4be5-86d0-ae3372c408d1}, !- Handle
  Surface 17,                             !- Name
  Wall,                                   !- Surface Type
  ,                                       !- Construction Name
  {9799bb4d-e1f9-4ee7-a2bb-c3305634ca53}, !- Space Name
  Outdoors,                               !- Outside Boundary Condition
  ,                                       !- Outside Boundary Condition Object
  SunExposed,                             !- Sun Exposure
  WindExposed,                            !- Wind Exposure
  ,                                       !- View Factor to Ground
  ,                                       !- Number of Vertices
  30, 0, 5,                               !- X,Y,Z Vertex 1 {m}
  30, 0, 0,                               !- X,Y,Z Vertex 2 {m}
  30, 10, 0,                              !- X,Y,Z Vertex 3 {m}
  30, 10, 5;                              !- X,Y,Z Vertex 4 {m}

OS:Surface,
  {9a40dbf3-b238-4184-97c5-a2c1a9f4ee82}, !- Handle
  Surface 18,                             !- Name
  Wall,                                   !- Surface Type
  ,                                       !- Construction Name
  {9799bb4d-e1f9-4ee7-a2bb-c3305634ca53}, !- Space Name
  Outdoors,                               !- Outside Boundary Condition
  ,                                       !- Outside Boundary Condition Object
  SunExposed,                             !- Sun Exposure
  WindExposed,                            !- Wind Exposure
  ,                                       !- View Factor to Ground
  ,                                       !- Number of Vertices
  20, 0, 5,                               !- X,Y,Z Vertex 1 {m}
  20, 0, 0,                               !- X,Y,Z Vertex 2 {m}
  30, 0, 0,                               !- X,Y,Z Vertex 3 {m}
  30, 0, 5;                               !- X,Y,Z Vertex 4 {m}

OS:Surface,
  {d8dc6b62-9ad0-4c95-a7a3-939dddc0a3cf}, !- Handle
  Surface 19,                             !- Name
  RoofCeiling,                            !- Surface Type
  ,                                       !- Construction Name
  {9799bb4d-e1f9-4ee7-a2bb-c3305634ca53}, !- Space Name
  Outdoors,                               !- Outside Boundary Condition
  ,                                       !- Outside Boundary Condition Object
  SunExposed,                             !- Sun Exposure
  WindExposed,                            !- Wind Exposure
  ,                                       !- View Factor to Ground
  ,                                       !- Number of Vertices
  30, 0, 5,                               !- X,Y,Z Vertex 1 {m}
  30, 10, 5,                              !- X,Y,Z Vertex 2 {m}
  20, 10, 5,                              !- X,Y,Z Vertex 3 {m}
  20, 0, 5;                               !- X,Y,Z Vertex 4 {m}

OS:Material,
  {532e774b-cbd8-43c0-a36c-7ba51b284e58}, !- Handle
  Plywood - 5/8in,                        !- Name
  Smooth,                                 !- Roughness
  0.015875,                               !- Thickness {m}
  0.12,                                   !- Conductivity {W/m-K}
  544,                                    !- Density {kg/m3}
  1210;                                   !- Specific Heat {J/kg-K}

OS:Material,
  {d905b72c-aa6c-4bed-b830-f3cbbc3c2de7}, !- Handle
  Expanded Polystyrene - 2in,             !- Name
  Smooth,                                 !- Roughness
  0.0508,                                 !- Thickness {m}
  0.0352,                                 !- Conductivity {W/m-K}
  24,                                     !- Density {kg/m3}
  1210;                                   !- Specific Heat {J/kg-K}

OS:Material,
  {37b2a34b-7a03-4f31-9402-7c145d7dedce}, !- Handle
  Heavyweight Concrete – 6in,             !- Name
  Smooth,                                 !- Roughness
  0.1524,                                 !- Thickness {m}
  1.95,                                   !- Conductivity {W/m-K}
  2242.6,                                 !- Density {kg/m3}
  900;                                    !- Specific Heat {J/kg-K}

OS:WindowMaterial:SimpleGlazingSystem,
  {cc3b6f92-3ddd-40cc-89e7-5f31ca4004ca}, !- Handle
  Glass,                                  !- Name
  0.1,                                    !- U-Factor {W/m2-K}
  0.3,                                    !- Solar Heat Gain Coefficient
  0.7;                                    !- Visible Transmittance

OS:Construction,
  {8c5cd6e0-77a6-4e8c-b2ae-15eec1e51703}, !- Handle
  Ext Wall Construction,                  !- Name
  ,                                       !- Surface Rendering Name
  {532e774b-cbd8-43c0-a36c-7ba51b284e58}, !- Layer 1
  {d905b72c-aa6c-4bed-b830-f3cbbc3c2de7}, !- Layer 2
  {37b2a34b-7a03-4f31-9402-7c145d7dedce}; !- Layer 3

OS:Construction,
  {ff25bbf0-3c33-4aac-befe-30fa3b3a2345}, !- Handle
  Int Wall Construction,                  !- Name
  ,                                       !- Surface Rendering Name
  {532e774b-cbd8-43c0-a36c-7ba51b284e58}, !- Layer 1
  {532e774b-cbd8-43c0-a36c-7ba51b284e58}; !- Layer 2

OS:Construction,
  {714187b4-0386-44fe-b3ff-c27627877448}, !- Handle
  Roof Construction,                      !- Name
  ,                                       !- Surface Rendering Name
  {532e774b-cbd8-43c0-a36c-7ba51b284e58}, !- Layer 1
  {d905b72c-aa6c-4bed-b830-f3cbbc3c2de7}, !- Layer 2
  {d905b72c-aa6c-4bed-b830-f3cbbc3c2de7}, !- Layer 3
  {532e774b-cbd8-43c0-a36c-7ba51b284e58}; !- Layer 4

OS:Construction,
  {9a5244f2-72db-425d-a378-33a82ccd4e4c}, !- Handle
  Window Construction,                    !- Name
  ,                                       !- Surface Rendering Name
  {cc3b6f92-3ddd-40cc-89e7-5f31ca4004ca}; !- Layer 1

OS:DefaultSurfaceConstructions,
  {5b0411c8-5358-43e8-85a8-1813aa00be6a}, !- Handle
  Default Surface Constructions 1,        !- Name
  {8c5cd6e0-77a6-4e8c-b2ae-15eec1e51703}, !- Floor Construction Name
  {8c5cd6e0-77a6-4e8c-b2ae-15eec1e51703}, !- Wall Construction Name
  {714187b4-0386-44fe-b3ff-c27627877448}; !- Roof Ceiling Construction Name

OS:DefaultSurfaceConstructions,
  {0820ba5c-560e-4ad1-ac7d-32fb671874a6}, !- Handle
  Default Surface Constructions 2,        !- Name
  {ff25bbf0-3c33-4aac-befe-30fa3b3a2345}, !- Floor Construction Name
  {ff25bbf0-3c33-4aac-befe-30fa3b3a2345}, !- Wall Construction Name
  ;                                       !- Roof Ceiling Construction Name

OS:DefaultSubSurfaceConstructions,
  {ce087169-f263-405e-a2a8-2781c0433406}, !- Handle
  Default Sub Surface Constructions 1,    !- Name
  {9a5244f2-72db-425d-a378-33a82ccd4e4c}, !- Fixed Window Construction Name
  ,                                       !- Operable Window Construction Name
  {9a5244f2-72db-425d-a378-33a82ccd4e4c}, !- Door Construction Name
  ,                                       !- Glass Door Construction Name
  ,                                       !- Overhead Door Construction Name
  ,                                       !- Skylight Construction Name
  ,                                       !- Tubular Daylight Dome Construction Name
  ;                                       !- Tubular Daylight Diffuser Construction Name

OS:DefaultConstructionSet,
  {554b52e6-53dc-4b25-9c03-939e71146e09}, !- Handle
  Building Default Constructions,         !- Name
  {5b0411c8-5358-43e8-85a8-1813aa00be6a}, !- Default Exterior Surface Constructions Name
  {0820ba5c-560e-4ad1-ac7d-32fb671874a6}, !- Default Interior Surface Constructions Name
  {5b0411c8-5358-43e8-85a8-1813aa00be6a}, !- Default Ground Contact Surface Constructions Name
  {ce087169-f263-405e-a2a8-2781c0433406}, !- Default Exterior SubSurface Constructions Name
  {ce087169-f263-405e-a2a8-2781c0433406}, !- Default Interior SubSurface Constructions Name
  ,                                       !- Interior Partition Construction Name
  ,                                       !- Space Shading Construction Name
  ,                                       !- Building Shading Construction Name
  ;                                       !- Site Shading Construction Name

OS:Building,
  {5c0d8008-0498-4185-8d6e-601f48503a74}, !- Handle
  Building 1,                             !- Name
  ,                                       !- Building Type
  ,                                       !- North Axis {deg}
  ,                                       !- Nominal Floor to Floor Height {m}
  ,                                       !- Space Type Name
  {554b52e6-53dc-4b25-9c03-939e71146e09}, !- Default Construction Set Name
  ;                                       !- Default Schedule Set Name

OS:People:Definition,
  {cf3b8ba8-0fce-496e-9883-1639df47799a}, !- Handle
  People Def - 1 person/200sf,            !- Name
  People/Area,                            !- Number of People Calculation Method
  ,                                       !- Number of People {people}
  0.05382,                                !- People per Space Floor Area {person/m2}
  ,                                       !- Space Floor Area per Person {m2/person}
  0.3,                                    !- Fraction Radiant
  0.1;                                    !- Sensible Heat Fraction

OS:Lights:Definition,
  {4acc3aaa-8a9e-496d-abbe-2df534ec560a}, !- Handle
  Lights Def - 1 W/sf,                    !- Name
  Watts/Area,                             !- Design Level Calculation Method
  ,                                       !- Lighting Level {W}
  11,                                     !- Watts per Space Floor Area {W/m2}
  ,                                       !- Watts per Person {W/person}
  0.3,                                    !- Fraction Radiant
  0.2,                                    !- Fraction Visible
  0;                                      !- Return Air Fraction

OS:Lights:Definition,
  {402e5a34-54b4-496d-a400-d7f25c2fd6d4}, !- Handle
  Lights Def - 2 W/sf,                    !- Name
  Watts/Area,                             !- Design Level Calculation Method
  ,                                       !- Lighting Level {W}
  22,                                     !- Watts per Space Floor Area {W/m2}
  ,                                       !- Watts per Person {W/person}
  0.3,                                    !- Fraction Radiant
  0.2,                                    !- Fraction Visible
  0;                                      !- Return Air Fraction

OS:DesignSpecification:OutdoorAir,
  {d03c37a0-b9fc-4323-8140-302a6a4f1c39}, !- Handle
  Design OA,                              !- Name
  ,                                       !- Outdoor Air Method
  0.010765,                               !- Outdoor Air Flow per Person {m3/s-person}
  ,                                       !- Outdoor Air Flow per Floor Area {m3/s-m2}
  ,                                       !- Outdoor Air Flow Rate {m3/s}
  ,                                       !- Outdoor Air Flow Air Changes per Hour {1/hr}
  ;                                       !- Outdoor Air Flow Rate Fraction Schedule Name

OS:SpaceType,
  {26ad09a4-7f4e-4cb2-ba64-395e5152f37b}, !- Handle
  Space Type A,                           !- Name
  ,                                       !- Default Construction Set Name
  {13d9a311-3062-4212-8ca8-404a51fe0dd7}, !- Default Schedule Set Name
  ,                                       !- Group Rendering Name
  {d03c37a0-b9fc-4323-8140-302a6a4f1c39}; !- Design Specification Outdoor Air Object Name

OS:People,
  {9cb546ba-3897-4ae5-901e-a2329c0ba198}, !- Handle
  People for Space Type A,                !- Name
  {cf3b8ba8-0fce-496e-9883-1639df47799a}, !- People Definition Name
  {26ad09a4-7f4e-4cb2-ba64-395e5152f37b}; !- Space or SpaceType Name

OS:Lights,
  {633871cb-e066-487d-86db-232373226324}, !- Handle
  Lights for Space Type A,                !- Name
  {4acc3aaa-8a9e-496d-abbe-2df534ec560a}, !- Lights Definition Name
  {26ad09a4-7f4e-4cb2-ba64-395e5152f37b}; !- Space or SpaceType Name

OS:SpaceType,