
OS:Version,
  {bde8d1bb-e491-471a-845e-bc571c00e127}, !- Handle
  1.2.5;                                  !- Version Identifier

OS:BuildingStory,
  {1e82ef63-dac3-47af-af8b-c0da89141d29}, !- Handle
  First Floor,                            !- Name
  ,                                       !- Nominal Z Coordinate {m}
  5,                                      !- Nominal Floor to Floor Height {m}
  ,                                       !- Default Construction Set Name
  ,                                       !- Default Schedule Set Name
  ;                                       !- Group Rendering Name

OS:Space,
  {4c7a4282-a040-484d-9735-b106c965c756}, !- Handle
  Space 1,                                !- Name
  {25dfd174-ea6f-4436-9974-6cf2de864196}, !- Space Type Name
  ,                                       !- Default Construction Set Name
  ,                                       !- Default Schedule Set Name
  ,                                       !- Direction of Relative North {deg}
  ,                                       !- X Origin {m}
  ,                                       !- Y Origin {m}
  ,                                       !- Z Origin {m}
  {1e82ef63-dac3-47af-af8b-c0da89141d29}; !- Building Story Name

OS:Surface,
  {7f83bef3-54e4-440d-875e-40e9a8baeb91}, !- Handle
  Surface 1,                              !- Name
  Floor,                                  !- Surface Type
  ,                                       !- Construction Name
  {4c7a4282-a040-484d-9735-b106c965c756}, !- Space Name
  Ground,                                 !- Outside Boundary Condition
  ,                                       !- Outside Boundary Condition Object
  NoSun,                                  !- Sun Exposure
  NoWind,                                 !- Wind Exposure
  ,                                       !- View Factor to Ground
  ,                                       !- Number of Vertices
  0, 0, 0,                                !- X,Y,Z Vertex 1 {m}
  0, 20, 0,                               !- X,Y,Z Vertex 2 {m}
  20, 20, 0,                              !- X,Y,Z Vertex 3 {m}
  20, 10, 0,                              !- X,Y,Z Vertex 4 {m}
  20, 0, 0;                               !- X,Y,Z Vertex 5 {m}

OS:Surface,
  {a1cf305a-ff4d-4a39-8b0d-64c641149a40}, !- Handle
  Surface 2,                              !- Name
  Wall,                                   !- Surface Type
  ,                                       !- Construction Name
  {4c7a4282-a040-484d-9735-b106c965c756}, !- Space Name
  Outdoors,                               !- Outside Boundary Condition
  ,                                       !- Outside Boundary Condition Object
  SunExposed,                             !- Sun Exposure
  WindExposed,                            !- Wind Exposure
  ,                                       !- View Factor to Ground
  ,                                       !- Number of Vertices
  0, 20, 5,                               !- X,Y,Z Vertex 1 {m}
  0, 20, 0,                               !- X,Y,Z Vertex 2 {m}
  0, 0, 0,                                !- X,Y,Z Vertex 3 {m}
  0, 0, 5;                                !- X,Y,Z Vertex 4 {m}

OS:Surface,
  {08d532ec-719a-4c3e-ad0d-999e3d2b99d1}, !- Handle
  Surface 3,                              !- Name
  Wall,                                   !- Surface Type
  ,                                       !- Construction Name
  {4c7a4282-a040-484d-9735-b106c965c756}, !- Space Name
  Outdoors,                               !- Outside Boundary Condition
  ,                                       !- Outside Boundary Condition Object
  SunExposed,                             !- Sun Exposure
  WindExposed,                            !- Wind Exposure
  ,                                       !- View Factor to Ground
  ,                                       !- Number of Vertices
  20, 20, 5,                              !- X,Y,Z Vertex 1 {m}
  20, 20, 0,                              !- X,Y,Z Vertex 2 {m}
  0, 20, 0,                               !- X,Y,Z Vertex 3 {m}
  0, 20, 5;                               !- X,Y,Z Vertex 4 {m}

OS:Surface,
  {f0376df6-eafd-44d3-a92d-7f1165cf39bf}, !- Handle
  Surface 4,                              !- Name
  Wall,                                   !- Surface Type
  ,                                       !- Construction Name
  {4c7a4282-a040-484d-9735-b106c965c756}, !- Space Name
  Surface,                                !- Outside Boundary Condition
  {5e723d64-31af-41a1-8785-0b27f65f50e0}, !- Outside Boundary Condition Object
  NoSun,                                  !- Sun Exposure
  NoWind,                                 !- Wind Exposure
  ,                                       !- View Factor to Ground
  ,                                       !- Number of Vertices
  20, 10, 5,                              !- X,Y,Z Vertex 1 {m}
  20, 10, 0,                              !- X,Y,Z Vertex 2 {m}
  20, 20, 0,                              !- X,Y,Z Vertex 3 {m}
  20, 20, 5;                              !- X,Y,Z Vertex 4 {m}

OS:Surface,
  {164e39d0-4e35-47d2-acc4-0c719d23708e}, !- Handle
  Surface 5,                              !- Name
  Wall,                                   !- Surface Type
  ,                                       !- Construction Name
  {4c7a4282-a040-484d-9735-b106c965c756}, !- Space Name
  Surface,                                !- Outside Boundary Condition
  {64ffa615-9363-413b-b746-1237d4c55a3c}, !- Outside Boundary Condition Object
  NoSun,                                  !- Sun Exposure
  NoWind,                                 !- Wind Exposure
  ,                                       !- View Factor to Ground
  ,                                       !- Number of Vertices
  20, 0, 5,                               !- X,Y,Z Vertex 1 {m}
  20, 0, 0,                               !- X,Y,Z Vertex 2 {m}
  20, 10, 0,                              !- X,Y,Z Vertex 3 {m}
  20, 10, 5;                              !- X,Y,Z Vertex 4 {m}

OS:Surface,
  {5d241991-be7f-487a-81a6-9a2e4e3ad228}, !- Handle
  Surface 6,                              !- Name
  Wall,                                   !- Surface Type
  ,                                       !- Construction Name
  {4c7a4282-a040-484d-9735-b106c965c756}, !- Space Name
  Outdoors,                               !- Outside Boundary Condition
  ,                                       !- Outside Boundary Condition Object
  SunExposed,                             !- Sun Exposure
  WindExposed,                            !- Wind Exposure
  ,                                       !- View Factor to Ground
  ,                                       !- Number of Vertices
  0, 0, 5,                                !- X,Y,Z Vertex 1 {m}
  0, 0, 0,                                !- X,Y,Z Vertex 2 {m}
  20, 0, 0,                               !- X,Y,Z Vertex 3 {m}
  20, 0, 5;                               !- X,Y,Z Vertex 4 {m}

OS:Surface,
  {d96f6856-c2d7-44a0-be54-703682535d67}, !- Handle
  Surface 7,                              !- Name
  RoofCeiling,                            !- Surface Type
  ,                                       !- Construction Name
  {4c7a4282-a040-484d-9735-b106c965c756}, !- Space Name
  Outdoors,                               !- Outside Boundary Condition
  ,                                       !- Outside Boundary Condition Object
  SunExposed,                             !- Sun Exposure
  WindExposed,                            !- Wind Exposure
  ,                                       !- View Factor to Ground
  ,                                       !- Number of Vertices
  20, 0, 5,                               !- X,Y,Z Vertex 1 {m}
  20, 10, 5,                              !- X,Y,Z Vertex 2 {m}
  20, 20, 5,                              !- X,Y,Z Vertex 3 {m}
  0, 20, 5,                               !- X,Y,Z Vertex 4 {m}
  0, 0, 5;                                !- X,Y,Z Vertex 5 {m}

OS:Space,
  {660f26cd-7aba-46d9-89a0-d0aa93ab1436}, !- Handle
  Space 2,                                !- Name
  {25dfd174-ea6f-4436-9974-6cf2de864196}, !- Space Type Name
  ,                                       !- Default Construction Set Name
  ,                                       !- Default Schedule Set Name
  ,                                       !- Direction of Relative North {deg}
  ,                                       !- X Origin {m}
  ,                                       !- Y Origin {m}
  ,                                       !- Z Origin {m}
  {1e82ef63-dac3-47af-af8b-c0da89141d29}; !- Building Story Name

OS:Surface,
  {4891b13e-2752-4ad6-a8ab-d9cb2d7c4b6e}, !- Handle
  Surface 8,                              !- Name
  Floor,                                  !- Surface Type
  ,                                       !- Construction Name
  {660f26cd-7aba-46d9-89a0-d0aa93ab1436}, !- Space Name
  Ground,                                 !- Outside Boundary Condition
  ,                                       !- Outside Boundary Condition Object
  NoSun,                                  !- Sun Exposure
  NoWind,                                 !- Wind Exposure
  ,                                       !- View Factor to Ground
  ,                                       !- Number of Vertices
  20, 10, 0,                              !- X,Y,Z Vertex 1 {m}
  20, 20, 0,                              !- X,Y,Z Vertex 2 {m}
  30, 20, 0,                              !- X,Y,Z Vertex 3 {m}
  30, 10, 0;                              !- X,Y,Z Vertex 4 {m}

OS:Surface,
  {5e723d64-31af-41a1-8785-0b27f65f50e0}, !- Handle
  Surface 9,                              !- Name
  Wall,                                   !- Surface Type
  ,                                       !- Construction Name
  {660f26cd-7aba-46d9-89a0-d0aa93ab1436}, !- Space Name
  Surface,                                !- Outside Boundary Condition
  {f0376df6-eafd-44d3-a92d-7f1165cf39bf}, !- Outside Boundary Condition Object
  NoSun,                                  !- Sun Exposure
  NoWind,                                 !- Wind Exposure
  ,                                       !- View Factor to Ground
  ,                                       !- Number of Vertices
  20, 20, 5,                              !- X,Y,Z Vertex 1 {m}
  20, 20, 0,                              !- X,Y,Z Vertex 2 {m}
  20, 10, 0,                              !- X,Y,Z Vertex 3 {m}
  20, 10, 5;                              !- X,Y,Z Vertex 4 {m}

OS:Surface,
  {5366f6b7-2d49-48b1-8ca0-ccf3625b0c5e}, !- Handle
  Surface 10,                             !- Name
  Wall,                                   !- Surface Type
  ,                                       !- Construction Name
  {660f26cd-7aba-46d9-89a0-d0aa93ab1436}, !- Space Name
  Outdoors,                               !- Outside Boundary Condition
  ,                                       !- Outside Boundary Condition Object
  SunExposed,                             !- Sun Exposure
  WindExposed,                            !- Wind Exposure
  ,                                       !- View Factor to Ground
  ,                                       !- Number of Vertices
  30, 20, 5,                              !- X,Y,Z Vertex 1 {m}
  30, 20, 0,                              !- X,Y,Z Vertex 2 {m}
  20, 20, 0,                              !- X,Y,Z Vertex 3 {m}
  20, 20, 5;                              !- X,Y,Z Vertex 4 {m}

OS:Surface,
  {a7a38b3a-6ae9-49fe-aa50-a1cf28c56fc0}, !- Handle
  Surface 11,                             !- Name
  Wall,                                   !- Surface Type
  ,                                       !- Construction Name
  {660f26cd-7aba-46d9-89a0-d0aa93ab1436}, !- Space Name
  Outdoors,                               !- Outside Boundary Condition
  ,                                       !- Outside Boundary Condition Object
  SunExposed,                             !- Sun Exposure
  WindExposed,                            !- Wind Exposure
  ,                                       !- View Factor to Ground
  ,                                       !- Number of Vertices
  30, 10, 5,                              !- X,Y,Z Vertex 1 {m}
  30, 10, 0,                              !- X,Y,Z Vertex 2 {m}
  30, 20, 0,                              !- X,Y,Z Vertex 3 {m}
  30, 20, 5;                              !- X,Y,Z Vertex 4 {m}

OS:Surface,
  {8bd64225-9e97-4f7e-9332-4d3a5dd7c72d}, !- Handle
  Surface 12,                             !- Name
  Wall,                                   !- Surface Type
  ,                                       !- Construction Name
  {660f26cd-7aba-46d9-89a0-d0aa93ab1436}, !- Space Name
  Surface,                                !- Outside Boundary Condition
  {49d37e7b-923a-4940-a0a0-771a7642c839}, !- Outside Boundary Condition Object
  NoSun,                                  !- Sun Exposure
  NoWind,                                 !- Wind Exposure
  ,                                       !- View Factor to Ground
  ,                                       !- Number of Vertices
  20, 10, 5,                              !- X,Y,Z Vertex 1 {m}
  20, 10, 0,                              !- X,Y,Z Vertex 2 {m}
  30, 10, 0,                              !- X,Y,Z Vertex 3 {m}
  30, 10, 5;                              !- X,Y,Z Vertex 4 {m}

OS:Surface,
  {2c3063c5-f5fd-4d78-8b69-9315260900f2}, !- Handle
  Surface 13,                             !- Name
  RoofCeiling,                            !- Surface Type
  ,                                       !- Construction Name
  {660f26cd-7aba-46d9-89a0-d0aa93ab1436}, !- Space Name
  Outdoors,                               !- Outside Boundary Condition
  ,                                       !- Outside Boundary Condition Object
  SunExposed,                             !- Sun Exposure
  WindExposed,                            !- Wind Exposure
  ,                                       !- View Factor to Ground
  ,                                       !- Number of Vertices
  30, 10, 5,                              !- X,Y,Z Vertex 1 {m}
  30, 20, 5,                              !- X,Y,Z Vertex 2 {m}
  20, 20, 5,                              !- X,Y,Z Vertex 3 {m}
  20, 10, 5;                              !- X,Y,Z Vertex 4 {m}

OS:Space,
  {93071f14-fe97-4529-ace2-4c55b1932bc6}, !- Handle
  Space 3,                                !- Name
  {ed5cc2e5-419d-448a-abef-c14d09ddc73c}, !- Space Type Name
  ,                                       !- Default Construction Set Name
  ,                                       !- Default Schedule Set Name
  ,                                       !- Direction of Relative North {deg}
  ,                                       !- X Origin {m}
  ,                                       !- Y Origin {m}
  ,                                       !- Z Origin {m}
  {1e82ef63-dac3-47af-af8b-c0da89141d29}; !- Building Story Name

OS:Surface,
  {55a7ff38-b617-4442-8768-7f31e526887b}, !- Handle
  Surface 14,                             !- Name
  Floor,                                  !- Surface Type
  ,                                       !- Construction Name
  {93071f14-fe97-4529-ace2-4c55b1932bc6}, !- Space Name
  Ground,                                 !- Outside Boundary Condition
  ,                                       !- Outside Boundary Condition Object
  NoSun,                                  !- Sun Exposure
  NoWind,                                 !- Wind Exposure
  ,                                       !- View Factor to Ground
  ,                                       !- Number of Vertices
  20, 0, 0,                               !- X,Y,Z Vertex 1 {m}
  20, 10, 0,                              !- X,Y,Z Vertex 2 {m}
  30, 10, 0,                              !- X,Y,Z Vertex 3 {m}
  30, 0, 0;                               !- X,Y,Z Vertex 4 {m}

OS:Surface,
  {64ffa615-9363-413b-b746-1237d4c55a3c}, !- Handle
  Surface 15,                             !- Name
  Wall,                                   !- Surface Type
  ,                                       !- Construction Name
  {93071f14-fe97-4529-ace2-4c55b1932bc6}, !- Space Name
  Surface,                                !- Outside Boundary Condition
  {164e39d0-4e35-47d2-acc4-0c719d23708e}, !- Outside Boundary Condition Object
  NoSun,                                  !- Sun Exposure
  NoWind,                                 !- Wind Exposure
  ,                                       !- View Factor to Ground
  ,                                       !- Number of Vertices
  20, 10, 5,                              !- X,Y,Z Vertex 1 {m}
  20, 10, 0,                              !- X,Y,Z Vertex 2 {m}
  20, 0, 0,                               !- X,Y,Z Vertex 3 {m}
  20, 0, 5;                               !- X,Y,Z Vertex 4 {m}

OS:Surface,
  {49d37e7b-923a-4940-a0a0-771a7642c839}, !- Handle
  Surface 16,                             !- Name
  Wall,                                   !- Surface Type
  ,                                       !- Construction Name
  {93071f14-fe97-4529-ace2-4c55b1932bc6}, !- Space Name
  Surface,                                !- Outside Boundary Condition
  {8bd64225-9e97-4f7e-9332-4d3a5dd7c72d}, !- Outside Boundary Condition Object
  NoSun,                                  !- Sun Exposure
  NoWind,                                 !- Wind Exposure
  ,                                       !- View Factor to Ground
  ,                                       !- Number of Vertices
  30, 10, 5,                              !- X,Y,Z Vertex 1 {m}
  30, 10, 0,                              !- X,Y,Z Vertex 2 {m}
  20, 10, 0,                              !- X,Y,Z Vertex 3 {m}
  20, 10, 5;                              !- X,Y,Z Vertex 4 {m}

OS:Surface,
  {f4a9d1ed-a86a-408e-b399-8265c57ebef2}, !- Handle
  Surface 17,                             !- Name
  Wall,                                   !- Surface Type
  ,                                       !- Construction Name
  {93071f14-fe97-4529-ace2-4c55b1932bc6}, !- Space Name
  Outdoors,                               !- Outside Boundary Condition
  ,                                       !- Outside Boundary Condition Object
  SunExposed,                             !- Sun Exposure
  WindExposed,                            !- Wind Exposure
  ,                                       !- View Factor to Ground
  ,                                       !- Number of Vertices
  30, 0, 5,                               !- X,Y,Z Vertex 1 {m}
  30, 0, 0,                               !- X,Y,Z Vertex 2 {m}
  30, 10, 0,                              !- X,Y,Z Vertex 3 {m}
  30, 10, 5;                              !- X,Y,Z Vertex 4 {m}

OS:Surface,
  {f33040ab-2af4-42ce-8af5-2f61244a6492}, !- Handle
  Surface 18,                             !- Name
  Wall,                                   !- Surface Type
  ,                                       !- Construction Name
  {93071f14-fe97-4529-ace2-4c55b1932bc6}, !- Space Name
  Outdoors,                               !- Outside Boundary Condition
  ,                                       !- Outside Boundary Condition Object
  SunExposed,                             !- Sun Exposure
  WindExposed,                            !- Wind Exposure
  ,                                       !- View Factor to Ground
  ,                                       !- Number of Vertices
  20, 0, 5,                               !- X,Y,Z Vertex 1 {m}
  20, 0, 0,                               !- X,Y,Z Vertex 2 {m}
  30, 0, 0,                               !- X,Y,Z Vertex 3 {m}
  30, 0, 5;                               !- X,Y,Z Vertex 4 {m}

OS:Surface,
  {ba12126f-8a8e-4ecc-b0b0-8414eb8aecc5}, !- Handle
  Surface 19,                             !- Name
  RoofCeiling,                            !- Surface Type
  ,                                       !- Construction Name
  {93071f14-fe97-4529-ace2-4c55b1932bc6}, !- Space Name
  Outdoors,                               !- Outside Boundary Condition
  ,                                       !- Outside Boundary Condition Object
  SunExposed,                             !- Sun Exposure
  WindExposed,                            !- Wind Exposure
  ,                                       !- View Factor to Ground
  ,                                       !- Number of Vertices
  30, 0, 5,                               !- X,Y,Z Vertex 1 {m}
  30, 10, 5,                              !- X,Y,Z Vertex 2 {m}
  20, 10, 5,                              !- X,Y,Z Vertex 3 {m}
  20, 0, 5;                               !- X,Y,Z Vertex 4 {m}

OS:Material,
  {435642f4-f0fa-4c62-8b37-13aa57b6280b}, !- Handle
  Plywood - 5/8in,                        !- Name
  Smooth,                                 !- Roughness
  0.015875,                               !- Thickness {m}
  0.12,                                   !- Conductivity {W/m-K}
  544,                                    !- Density {kg/m3}
  1210;                                   !- Specific Heat {J/kg-K}

OS:Material,
  {8ecf8c9c-7954-4ec0-ad9d-a65283a5c216}, !- Handle
  Expanded Polystyrene - 2in,             !- Name
  Smooth,                                 !- Roughness
  0.0508,                                 !- Thickness {m}
  0.0352,                                 !- Conductivity {W/m-K}
  24,                                     !- Density {kg/m3}
  1210;                                   !- Specific Heat {J/kg-K}

OS:Material,
  {d874032c-cdf6-45bd-8d8e-bc360ea86449}, !- Handle
  Heavyweight Concrete – 6in,             !- Name
  Smooth,                                 !- Roughness
  0.1524,                                 !- Thickness {m}
  1.95,                                   !- Conductivity {W/m-K}
  2242.6,                                 !- Density {kg/m3}
  900;                                    !- Specific Heat {J/kg-K}

OS:WindowMaterial:SimpleGlazingSystem,
  {5191294e-fe8f-4f68-8112-ecf0417c633e}, !- Handle
  Glass,                                  !- Name
  0.1,                                    !- U-Factor {W/m2-K}
  0.3,                                    !- Solar Heat Gain Coefficient
  0.7;                                    !- Visible Transmittance

OS:Construction,
  {851f4be7-9c42-4322-b287-5c1a2bdbc4a2}, !- Handle
  Ext Wall Construction,                  !- Name
  ,                                       !- Surface Rendering Name
  {435642f4-f0fa-4c62-8b37-13aa57b6280b}, !- Layer 1
  {8ecf8c9c-7954-4ec0-ad9d-a65283a5c216}, !- Layer 2
  {d874032c-cdf6-45bd-8d8e-bc360ea86449}; !- Layer 3

OS:Construction,
  {3c3f26f0-97c8-4639-b8f6-773df65ee53d}, !- Handle
  Int Wall Construction,                  !- Name
  ,                                       !- Surface Rendering Name
  {435642f4-f0fa-4c62-8b37-13aa57b6280b}, !- Layer 1
  {435642f4-f0fa-4c62-8b37-13aa57b6280b}; !- Layer 2

OS:Construction,
  {4bd278eb-08bb-4d98-9476-668fd557d90d}, !- Handle
  Roof Construction,                      !- Name
  ,                                       !- Surface Rendering Name
  {435642f4-f0fa-4c62-8b37-13aa57b6280b}, !- Layer 1
  {8ecf8c9c-7954-4ec0-ad9d-a65283a5c216}, !- Layer 2
  {8ecf8c9c-7954-4ec0-ad9d-a65283a5c216}, !- Layer 3
  {435642f4-f0fa-4c62-8b37-13aa57b6280b}; !- Layer 4

OS:Construction,
  {c2edd2ad-abdb-4b07-9b57-733905c6d08c}, !- Handle
  Window Construction,                    !- Name
  ,                                       !- Surface Rendering Name
  {5191294e-fe8f-4f68-8112-ecf0417c633e}; !- Layer 1

OS:DefaultSurfaceConstructions,
  {6034e30a-7923-45cc-b4c5-13a5edf0f47b}, !- Handle
  Default Surface Constructions 1,        !- Name
  {851f4be7-9c42-4322-b287-5c1a2bdbc4a2}, !- Floor Construction Name
  {851f4be7-9c42-4322-b287-5c1a2bdbc4a2}, !- Wall Construction Name
  {4bd278eb-08bb-4d98-9476-668fd557d90d}; !- Roof Ceiling Construction Name

OS:DefaultSurfaceConstructions,
  {bafe398a-32dc-4f48-9930-ede3e134f526}, !- Handle
  Default Surface Constructions 2,        !- Name
  {3c3f26f0-97c8-4639-b8f6-773df65ee53d}, !- Floor Construction Name
  {3c3f26f0-97c8-4639-b8f6-773df65ee53d}, !- Wall Construction Name
  ;                                       !- Roof Ceiling Construction Name

OS:DefaultSubSurfaceConstructions,
  {95f6ebd0-8e82-44f9-946a-8306d77384dc}, !- Handle
  Default Sub Surface Constructions 1,    !- Name
  {c2edd2ad-abdb-4b07-9b57-733905c6d08c}, !- Fixed Window Construction Name
  ,                                       !- Operable Window Construction Name
  {c2edd2ad-abdb-4b07-9b57-733905c6d08c}, !- Door Construction Name
  ,                                       !- Glass Door Construction Name
  ,                                       !- Overhead Door Construction Name
  ,                                       !- Skylight Construction Name
  ,                                       !- Tubular Daylight Dome Construction Name
  ;                                       !- Tubular Daylight Diffuser Construction Name

OS:DefaultConstructionSet,
  {fd7ec961-336b-4574-a2b2-b8cd780bb447}, !- Handle
  Building Default Constructions,         !- Name
  {6034e30a-7923-45cc-b4c5-13a5edf0f47b}, !- Default Exterior Surface Constructions Name
  {bafe398a-32dc-4f48-9930-ede3e134f526}, !- Default Interior Surface Constructions Name
  {6034e30a-7923-45cc-b4c5-13a5edf0f47b}, !- Default Ground Contact Surface Constructions Name
  {95f6ebd0-8e82-44f9-946a-8306d77384dc}, !- Default Exterior SubSurface Constructions Name
  {95f6ebd0-8e82-44f9-946a-8306d77384dc}, !- Default Interior SubSurface Constructions Name
  ,                                       !- Interior Partition Construction Name
  ,                                       !- Space Shading Construction Name
  ,                                       !- Building Shading Construction Name
  ;                                       !- Site Shading Construction Name

OS:Building,
  {7bbeae46-f6db-46c6-854f-0221d9d73a4b}, !- Handle
  Building 1,                             !- Name
  ,                                       !- Building Sector Type
  ,                                       !- North Axis {deg}
  ,                                       !- Nominal Floor to Floor Height {m}
  ,                                       !- Space Type Name
  {fd7ec961-336b-4574-a2b2-b8cd780bb447}, !- Default Construction Set Name
  ;                                       !- Default Schedule Set Name

OS:People:Definition,
  {dbed07fb-f578-45fb-8293-7e8ee0bce590}, !- Handle
  People Def - 1 person/200sf,            !- Name
  People/Area,                            !- Number of People Calculation Method
  ,                                       !- Number of People {people}
  0.05382,                                !- People per Space Floor Area {person/m2}
  ,                                       !- Space Floor Area per Person {m2/person}
  0.3,                                    !- Fraction Radiant
  0.1;                                    !- Sensible Heat Fraction

OS:Lights:Definition,
  {521d19cc-0d69-482b-bc81-70fd541d6282}, !- Handle
  Lights Def - 1 W/sf,                    !- Name
  Watts/Area,                             !- Design Level Calculation Method
  ,                                       !- Lighting Level {W}
  11,                                     !- Watts per Space Floor Area {W/m2}
  ,                                       !- Watts per Person {W/person}
  0.3,                                    !- Fraction Radiant
  0.2,                                    !- Fraction Visible
  0;                                      !- Return Air Fraction

OS:Lights:Definition,
  {dc2d258c-e618-41ce-acbe-e9e8c06d7a5b}, !- Handle
  Lights Def - 2 W/sf,                    !- Name
  Watts/Area,                             !- Design Level Calculation Method
  ,                                       !- Lighting Level {W}
  22,                                     !- Watts per Space Floor Area {W/m2}
  ,                                       !- Watts per Person {W/person}
  0.3,                                    !- Fraction Radiant
  0.2,                                    !- Fraction Visible
  0;                                      !- Return Air Fraction

OS:DesignSpecification:OutdoorAir,
  {14b71d16-0542-41e3-b917-015a12c5a9cb}, !- Handle
  Design OA,                              !- Name
  ,                                       !- Outdoor Air Method
  0.010765,                               !- Outdoor Air Flow per Person {m3/s-person}
  ,                                       !- Outdoor Air Flow per Floor Area {m3/s-m2}
  ,                                       !- Outdoor Air Flow Rate {m3/s}
  ,                                       !- Outdoor Air Flow Air Changes per Hour {1/hr}
  ;                                       !- Outdoor Air Flow Rate Fraction Schedule Name

OS:SpaceType,
  {25dfd174-ea6f-4436-9974-6cf2de864196}, !- Handle
  Space Type A,                           !- Name
  ,                                       !- Default Construction Set Name
  {42a437e7-f312-48fc-834c-c80ad0e61bde}, !- Default Schedule Set Name
  ,                                       !- Group Rendering Name
  {14b71d16-0542-41e3-b917-015a12c5a9cb}; !- Design Specification Outdoor Air Object Name

OS:People,
  {40ec8469-7a40-4437-a582-0666c82a896f}, !- Handle
  People for Space Type A,                !- Name
  {dbed07fb-f578-45fb-8293-7e8ee0bce590}, !- People Definition Name
  {25dfd174-ea6f-4436-9974-6cf2de864196}; !- Space or SpaceType Name

OS:Lights,
  {1c320158-076b-4b93-aab0-8cd7af6d9f28}, !- Handle
  Lights for Space Type A,                !- Name
  {521d19cc-0d69-482b-bc81-70fd541d6282}, !- Lights Definition Name
  {25dfd174-ea6f-4436-9974-6cf2de864196}; !- Space or SpaceType Name

OS:SpaceType,
  {ed5cc2e5-419d-448a-abef-c14d09ddc73c}, !- Handle
  Space Type B,                           !- Name
  ,                                       !- Default Construction Set Name