
OS:Version,
  {e2c81e47-f172-4a2d-a6fe-72538d8ad4bb}, !- Handle
  1.0.0;                                  !- Version Identifier

