
OS:Version,
  {fdc2fb15-8baa-48f7-bbc1-169338c59e45}, !- Handle
  1.2.5;                                  !- Version Identifier

