
Version,
  7.2;                                    !- Version Identifier

ProgramControl,
  1;                                      !- Number of Threads Allowed

GlobalGeometryRules,
  UpperLeftCorner,                        !- Starting Vertex Position
  Counterclockwise,                       !- Vertex Entry Direction
  Relative,                               !- Coordinate System
  Relative,                               !- Daylighting Reference Point Coordinate System
  Relative;                               !- Rectangular Surface Coordinate System

Material,
  Expanded Polystyrene - 2in,             !- Name
  Smooth,                                 !- Roughness
  0.0508,                                 !- Thickness {m}
  0.0352,                                 !- Conductivity {W/m-K}
  24,                                     !- Density {kg/m3}
  1210,                                   !- Specific Heat {J/kg-K}
  0.9,                                    !- Thermal Absorptance
  0.7,                                    !- Solar Absorptance
  0.7;                                    !- Visible Absorptance

Material,
  Heavyweight Concrete – 6in,             !- Name
  Smooth,                                 !- Roughness
  0.1524,                                 !- Thickness {m}
  1.95,                                   !- Conductivity {W/m-K}
  2242.6,                                 !- Density {kg/m3}
  900,                                    !- Specific Heat {J/kg-K}
  0.9,                                    !- Thermal Absorptance
  0.7,                                    !- Solar Absorptance
  0.7;                                    !- Visible Absorptance

Material,
  Plywood - 5/8in,                        !- Name
  Smooth,                                 !- Roughness
  0.015875,                               !- Thickness {m}
  0.12,                                   !- Conductivity {W/m-K}
  544,                                    !- Density {kg/m3}
  1210,                                   !- Specific Heat {J/kg-K}
  0.9,                                    !- Thermal Absorptance
  0.7,                                    !- Solar Absorptance
  0.7;                                    !- Visible Absorptance

WindowMaterial:SimpleGlazingSystem,
  Glass,                                  !- Name
  0.1,                                    !- U-Factor {W/m2-K}
  0.3,                                    !- Solar Heat Gain Coefficient
  0.7;                                    !- Visible Transmittance

Construction,
  Ext Wall Construction,                  !- Name
  Plywood - 5/8in,                        !- Layer 1
  Expanded Polystyrene - 2in,             !- Layer 2
  Heavyweight Concrete – 6in;             !- Layer 3

Construction,
  Int Wall Construction,                  !- Name
  Plywood - 5/8in,                        !- Layer 1
  Plywood - 5/8in;                        !- Layer 2

Construction,
  Roof Construction,                      !- Name
  Plywood - 5/8in,                        !- Layer 1
  Expanded Polystyrene - 2in,             !- Layer 2
  Expanded Polystyrene - 2in,             !- Layer 3
  Plywood - 5/8in;                        !- Layer 4

Construction,
  Window Construction,                    !- Name
  Glass;                                  !- Layer 1

ScheduleTypeLimits,
  Activity Level Sch Limits,              !- Name
  0,                                      !- Lower Limit Value {BasedOnField A3}
  600,                                    !- Upper Limit Value {BasedOnField A3}
  Continuous,                             !- Numeric Type
  activitylevel;                          !- Unit Type

ScheduleTypeLimits,
  Fractional Sch Limits,                  !- Name
  0,                                      !- Lower Limit Value {BasedOnField A3}
  1,                                      !- Upper Limit Value {BasedOnField A3}
  Continuous;                             !- Numeric Type

ScheduleTypeLimits,
  Schedule Type Limits 1,                 !- Name
  0,                                      !- Lower Limit Value {BasedOnField A3}
  1,                                      !- Upper Limit Value {BasedOnField A3}
  Discrete,                               !- Numeric Type
  availability;                           !- Unit Type

ScheduleTypeLimits,
  Temperature Sch Limits,                 !- Name
  0,                                      !- Lower Limit Value {BasedOnField A3}
  50,                                     !- Upper Limit Value {BasedOnField A3}
  Continuous,                             !- Numeric Type
  temperature;                            !- Unit Type

Schedule:Constant,
  Always On Discrete,                     !- Name
  Schedule Type Limits 1,                 !- Schedule Type Limits Name
  1;                                      !- Hourly Value

Schedule:Day:Interval,
  Cooling Setpoint Schedule All Days,     !- Name
  Temperature Sch Limits,                 !- Schedule Type Limits Name
  No,                                     !- Interpolate to Timestep
  07:00,                                  !- Time 1 {hh:mm}
  26.67,                                  !- Value Until Time 1
  20:00,                                  !- Time 2 {hh:mm}
  23.89,                                  !- Value Until Time 2
  24:00,                                  !- Time 3 {hh:mm}
  26.67;                                  !- Value Until Time 3

Schedule:Day:Interval,
  Heating Setpoint Schedule All Days,     !- Name
  Temperature Sch Limits,                 !- Schedule Type Limits Name
  No,                                     !- Interpolate to Timestep
  07:00,                                  !- Time 1 {hh:mm}
  18.33,                                  !- Value Until Time 1
  20:00,                                  !- Time 2 {hh:mm}
  21.11,                                  !- Value Until Time 2
  24:00,                                  !- Time 3 {hh:mm}
  18.33;                                  !- Value Until Time 3

Schedule:Day:Interval,
  Lighting Schedule Saturday,             !- Name
  Fractional Sch Limits,                  !- Schedule Type Limits Name
  No,                                     !- Interpolate to Timestep
  09:00,                                  !- Time 1 {hh:mm}
  0,                                      !- Value Until Time 1
  17:00,                                  !- Time 2 {hh:mm}
  0.5,                                    !- Value Until Time 2
  24:00,                                  !- Time 3 {hh:mm}
  0;                                      !- Value Until Time 3

Schedule:Day:Interval,
  Lighting Schedule Sunday,               !- Name
  Fractional Sch Limits,                  !- Schedule Type Limits Name
  No,                                     !- Interpolate to Timestep
  09:00,                                  !- Time 1 {hh:mm}
  0,                                      !- Value Until Time 1
  17:00,                                  !- Time 2 {hh:mm}
  0.5,                                    !- Value Until Time 2
  24:00,                                  !- Time 3 {hh:mm}
  0;                                      !- Value Until Time 3

Schedule:Day:Interval,
  Lighting Schedule Week Day,             !- Name
  Fractional Sch Limits,                  !- Schedule Type Limits Name
  No,                                     !- Interpolate to Timestep
  09:00,                                  !- Time 1 {hh:mm}
  0,                                      !- Value Until Time 1
  18:00,                                  !- Time 2 {hh:mm}
  0.9,                                    !- Value Until Time 2
  24:00,                                  !- Time 3 {hh:mm}
  0;                                      !- Value Until Time 3

Schedule:Day:Interval,
  Occupancy Schedule Saturday,            !- Name
  Fractional Sch Limits,                  !- Schedule Type Limits Name
  No,                                     !- Interpolate to Timestep
  09:00,                                  !- Time 1 {hh:mm}
  0,                                      !- Value Until Time 1
  17:00,                                  !- Time 2 {hh:mm}
  0.5,                                    !- Value Until Time 2
  24:00,                                  !- Time 3 {hh:mm}
  0;                                      !- Value Until Time 3

Schedule:Day:Interval,
  Occupancy Schedule Sunday,              !- Name
  Fractional Sch Limits,                  !- Schedule Type Limits Name
  No,                                     !- Interpolate to Timestep
  09:00,                                  !- Time 1 {hh:mm}
  0,                                      !- Value Until Time 1
  17:00,                                  !- Time 2 {hh:mm}
  0.5,                                    !- Value Until Time 2
  24:00,                                  !- Time 3 {hh:mm}
  0;                                      !- Value Until Time 3

Schedule:Day:Interval,
  Occupancy Schedule Week Day,            !- Name
  Fractional Sch Limits,                  !- Schedule Type Limits Name
  No,                                     !- Interpolate to Timestep
  09:00,                                  !- Time 1 {hh:mm}
  0,                                      !- Value Until Time 1
  18:00,                                  !- Time 2 {hh:mm}
  0.9,                                    !- Value Until Time 2
  24:00,                                  !- Time 3 {hh:mm}
  0;                                      !- Value Until Time 3

Schedule:Day:Interval,
  People Activity Schedule All Days,      !- Name
  Activity Level Sch Limits,              !- Schedule Type Limits Name
  No,                                     !- Interpolate to Timestep
  24:00,                                  !- Time 1 {hh:mm}
  120;                                    !- Value Until Time 1

Schedule:Week:Daily,
  Schedule:Week:Daily {9e2294fe-6d9c-4591-b7f2-a71a8f64a7ee}, !- Name
  Cooling Setpoint Schedule All Days,     !- Sunday Schedule:Day Name
  Cooling Setpoint Schedule All Days,     !- Monday Schedule:Day Name
  Cooling Setpoint Schedule All Days,     !- Tuesday Schedule:Day Name
  Cooling Setpoint Schedule All Days,     !- Wednesday Schedule:Day Name
  Cooling Setpoint Schedule All Days,     !- Thursday Schedule:Day Name
  Cooling Setpoint Schedule All Days,     !- Friday Schedule:Day Name
  Cooling Setpoint Schedule All Days,     !- Saturday Schedule:Day Name
  Cooling Setpoint Schedule All Days,     !- Holiday Schedule:Day Name
  Cooling Setpoint Schedule All Days,     !- SummerDesignDay Schedule:Day Name
  Cooling Setpoint Schedule All Days,     !- WinterDesignDay Schedule:Day Name
  Cooling Setpoint Schedule All Days,     !- CustomDay1 Schedule:Day Name
  Cooling Setpoint Schedule All Days;     !- CustomDay2 Schedule:Day Name

Schedule:Year,
  Cooling Setpoint Schedule,              !- Name
  Temperature Sch Limits,                 !- Schedule Type Limits Name
  Schedule:Week:Daily {9e2294fe-6d9c-4591-b7f2-a71a8f64a7ee}, !- Schedule:Week Name 1
  1,                                      !- Start Month 1
  1,                                      !- Start Day 1
  12,                                     !- End Month 1
  31;                                     !- End Day 1

Schedule:Week:Daily,
  Schedule:Week:Daily {c55e8e97-3d7e-4c30-b045-46278536f062}, !- Name
  Heating Setpoint Schedule All Days,     !- Sunday Schedule:Day Name
  Heating Setpoint Schedule All Days,     !- Monday Schedule:Day Name
  Heating Setpoint Schedule All Days,     !- Tuesday Schedule:Day Name
  Heating Setpoint Schedule All Days,     !- Wednesday Schedule:Day Name
  Heating Setpoint Schedule All Days,     !- Thursday Schedule:Day Name
  Heating Setpoint Schedule All Days,     !- Friday Schedule:Day Name
  Heating Setpoint Schedule All Days,     !- Saturday Schedule:Day Name
  Heating Setpoint Schedule All Days,     !- Holiday Schedule:Day Name
  Heating Setpoint Schedule All Days,     !- SummerDesignDay Schedule:Day Name
  Heating Setpoint Schedule All Days,     !- WinterDesignDay Schedule:Day Name
  Heating Setpoint Schedule All Days,     !- CustomDay1 Schedule:Day Name
  Heating Setpoint Schedule All Days;     !- CustomDay2 Schedule:Day Name

Schedule:Year,
  Heating Setpoint Schedule,              !- Name
  Temperature Sch Limits,                 !- Schedule Type Limits Name
  Schedule:Week:Daily {c55e8e97-3d7e-4c30-b045-46278536f062}, !- Schedule:Week Name 1
  1,                                      !- Start Month 1
  1,                                      !- Start Day 1
  12,                                     !- End Month 1
  31;                                     !- End Day 1

Schedule:Week:Daily,
  Schedule:Week:Daily {1c9b676f-67e9-4d57-a931-7987e594c570}, !- Name
  Lighting Schedule Week Day,             !- Sunday Schedule:Day Name
  Lighting Schedule Week Day,             !- Monday Schedule:Day Name
  Lighting Schedule Week Day,             !- Tuesday Schedule:Day Name
  Lighting Schedule Week Day,             !- Wednesday Schedule:Day Name
  Lighting Schedule Week Day,             !- Thursday Schedule:Day Name
  Lighting Schedule Week Day,             !- Friday Schedule:Day Name
  Lighting Schedule Saturday,             !- Saturday Schedule:Day Name
  Lighting Schedule Week Day,             !- Holiday Schedule:Day Name
  Lighting Schedule Week Day,             !- SummerDesignDay Schedule:Day Name
  Lighting Schedule Week Day,             !- WinterDesignDay Schedule:Day Name
  Lighting Schedule Week Day,             !- CustomDay1 Schedule:Day Name
  Lighting Schedule Week Day;             !- CustomDay2 Schedule:Day Name

Schedule:Week:Daily,
  Schedule:Week:Daily {67bb027b-5ff1-4494-ae8b-0096b103b554}, !- Name
  Lighting Schedule Sunday,               !- Sunday Schedule:Day Name
  Lighting Schedule Week Day,             !- Monday Schedule:Day Name
  Lighting Schedule Week Day,             !- Tuesday Schedule:Day Name
  Lighting Schedule Week Day,             !- Wednesday Schedule:Day Name
  Lighting Schedule Week Day,             !- Thursday Schedule:Day Name
  Lighting Schedule Week Day,             !- Friday Schedule:Day Name
  Lighting Schedule Saturday,             !- Saturday Schedule:Day Name
  Lighting Schedule Week Day,             !- Holiday Schedule:Day Name
  Lighting Schedule Week Day,             !- SummerDesignDay Schedule:Day Name
  Lighting Schedule Week Day,             !- WinterDesignDay Schedule:Day Name
  Lighting Schedule Week Day,             !- CustomDay1 Schedule:Day Name
  Lighting Schedule Week Day;             !- CustomDay2 Schedule:Day Name

Schedule:Year,
  Lighting Schedule,                      !- Name
  Fractional Sch Limits,                  !- Schedule Type Limits Name
  Schedule:Week:Daily {1c9b676f-67e9-4d57-a931-7987e594c570}, !- Schedule:Week Name 1
  1,                                      !- Start Month 1
  1,                                      !- Start Day 1
  1,                                      !- End Month 1
  3,                                      !- End Day 1
  Schedule:Week:Daily {67bb027b-5ff1-4494-ae8b-0096b103b554}, !- Schedule:Week Name 2
  1,                                      !- Start Month 2
  4,                                      !- Start Day 2
  12,                                     !- End Month 2
  31;                                     !- End Day 2

Schedule:Week:Daily,
  Schedule:Week:Daily {ca503dba-3408-4cd9-8e32-9762382e3d15}, !- Name
  Occupancy Schedule Week Day,            !- Sunday Schedule:Day Name
  Occupancy Schedule Week Day,            !- Monday Schedule:Day Name
  Occupancy Schedule Week Day,            !- Tuesday Schedule:Day Name
  Occupancy Schedule Week Day,            !- Wednesday Schedule:Day Name
  Occupancy Schedule Week Day,            !- Thursday Schedule:Day Name
  Occupancy Schedule Week Day,            !- Friday Schedule:Day Name
  Occupancy Schedule Saturday,            !- Saturday Schedule:Day Name
  Occupancy Schedule Week Day,            !- Holiday Schedule:Day Name
  Occupancy Schedule Week Day,            !- SummerDesignDay Schedule:Day Name
  Occupancy Schedule Week Day,            !- WinterDesignDay Schedule:Day Name
  Occupancy Schedule Week Day,            !- CustomDay1 Schedule:Day Name
  Occupancy Schedule Week Day;            !- CustomDay2 Schedule:Day Name

Schedule:Week:Daily,
  Schedule:Week:Daily {3e342b55-4208-41e4-a87d-ec2254dd3ab9}, !- Name
  Occupancy Schedule Sunday,              !- Sunday Schedule:Day Name
  Occupancy Schedule Week Day,            !- Monday Schedule:Day Name
  Occupancy Schedule Week Day,            !- Tuesday Schedule:Day Name
  Occupancy Schedule Week Day,            !- Wednesday Schedule:Day Name
  Occupancy Schedule Week Day,            !- Thursday Schedule:Day Name
  Occupancy Schedule Week Day,            !- Friday Schedule:Day Name
  Occupancy Schedule Saturday,            !- Saturday Schedule:Day Name
  Occupancy Schedule Week Day,            !- Holiday Schedule:Day Name
  Occupancy Schedule Week Day,            !- SummerDesignDay Schedule:Day Name
  Occupancy Schedule Week Day,            !- WinterDesignDay Schedule:Day Name
  Occupancy Schedule Week Day,            !- CustomDay1 Schedule:Day Name
  Occupancy Schedule Week Day;            !- CustomDay2 Schedule:Day Name

Schedule:Year,
  Occupancy Schedule,                     !- Name
  Fractional Sch Limits,                  !- Schedule Type Limits Name
  Schedule:Week:Daily {ca503dba-3408-4cd9-8e32-9762382e3d15}, !- Schedule:Week Name 1
  1,                                      !- Start Month 1
  1,                                      !- Start Day 1
  1,                                      !- End Month 1
  3,                                      !- End Day 1
  Schedule:Week:Daily {3e342b55-4208-41e4-a87d-ec2254dd3ab9}, !- Schedule:Week Name 2
  1,                                      !- Start Month 2
  4,                                      !- Start Day 2
  12,                                     !- End Month 2
  31;                                     !- End Day 2

Schedule:Week:Daily,
  Schedule:Week:Daily {7644aea5-ffc9-4a53-b750-2ddffd95bca1}, !- Name
  People Activity Schedule All Days,      !- Sunday Schedule:Day Name
  People Activity Schedule All Days,      !- Monday Schedule:Day Name
  People Activity Schedule All Days,      !- Tuesday Schedule:Day Name
  People Activity Schedule All Days,      !- Wednesday Schedule:Day Name
  People Activity Schedule All Days,      !- Thursday Schedule:Day Name
  People Activity Schedule All Days,      !- Friday Schedule:Day Name
  People Activity Schedule All Days,      !- Saturday Schedule:Day Name
  People Activity Schedule All Days,      !- Holiday Schedule:Day Name
  People Activity Schedule All Days,      !- SummerDesignDay Schedule:Day Name
  People Activity Schedule All Days,      !- WinterDesignDay Schedule:Day Name
  People Activity Schedule All Days,      !- CustomDay1 Schedule:Day Name
  People Activity Schedule All Days;      !- CustomDay2 Schedule:Day Name

Schedule:Year,
  People Activity Schedule,               !- Name
  Activity Level Sch Limits,              !- Schedule Type Limits Name
  Schedule:Week:Daily {7644aea5-ffc9-4a53-b750-2ddffd95bca1}, !- Schedule:Week Name 1
  1,                                      !- Start Month 1
  1,                                      !- Start Day 1
  12,                                     !- End Month 1
  31;                                     !- End Day 1

AirLoopHVAC,
  Packaged Rooftop Air Conditioner,       !- Name
  ,                                       !- Controller List Name
  Packaged Rooftop Air ConditionerAvailability Manager List, !- Availability Manager List Name
  AutoSize,                               !- Design Supply Air Flow Rate {m3/s}
  BranchList {d40504d8-4a29-4237-a151-bb65ac87a398}, !- Branch List Name
  ,                                       !- Connector List Name
  Node 3,                                 !- Supply Side Inlet Node Name
  Node 6,                                 !- Demand Side Outlet Node Name
  Node 5,                                 !- Demand Side Inlet Node Names
  Node 4;                                 !- Supply Side Outlet Node Names

Sizing:System,
  Packaged Rooftop Air Conditioner,       !- AirLoop Name
  Sensible,                               !- Type of Load to Size On
  Autosize,                               !- Design Outdoor Air Flow Rate {m3/s}
  1,                                      !- Minimum System Air Flow Ratio
  7,                                      !- Preheat Design Temperature {C}
  0.008,                                  !- Preheat Design Humidity Ratio {kgWater/kgDryAir}
  12.8,                                   !- Precool Design Temperature {C}
  0.008,                                  !- Precool Design Humidity Ratio {kgWater/kgDryAir}
  12.8,                                   !- Central Cooling Design Supply Air Temperature {C}
  40,                                     !- Central Heating Design Supply Air Temperature {C}
  NonCoincident,                          !- Sizing Option
  Yes,                                    !- 100% Outdoor Air in Cooling
  Yes,                                    !- 100% Outdoor Air in Heating
  0.0085,                                 !- Central Cooling Design Supply Air Humidity Ratio {kgWater/kgDryAir}
  0.008,                                  !- Central Heating Design Supply Air Humidity Ratio {kgWater/kgDryAir}
  DesignDay,                              !- Cooling Design Air Flow Method
  0,                                      !- Cooling Design Air Flow Rate {m3/s}
  DesignDay,                              !- Heating Design Air Flow Method
  0,                                      !- Heating Design Air Flow Rate {m3/s}
  ZoneSum;                                !- System Outdoor Air Method

AvailabilityManagerAssignmentList,
  Packaged Rooftop Air ConditionerAvailability Manager List, !- Name
  AvailabilityManager:Scheduled,          !- Availability Manager Object Type 1
  Packaged Rooftop Air Conditioner Availability Manager; !- Availability Manager Name 1

AvailabilityManager:Scheduled,
  Packaged Rooftop Air Conditioner Availability Manager, !- Name
  Always On Discrete;                     !- Schedule Name

BranchList,
  BranchList {d40504d8-4a29-4237-a151-bb65ac87a398}, !- Name
  Branch {9c9c87ee-3eb0-42bb-90c4-036ba2ef3dbb}; !- Branch Name 1

Branch,
  Branch {9c9c87ee-3eb0-42bb-90c4-036ba2ef3dbb}, !- Name
  AutoSize,                               !- Maximum Flow Rate {m3/s}
  ,                                       !- Pressure Drop Curve Name
  AirLoopHVAC:OutdoorAirSystem,           !- Component Object Type 1
  Air Loop HVAC Outdoor Air System 1,     !- Component Name 1
  Node 3,                                 !- Component Inlet Node Name 1
  Node 10,                                !- Component Outlet Node Name 1
  Passive,                                !- Component Branch Control Type 1
  CoilSystem:Cooling:DX,                  !- Component Object Type 2
  Coil Cooling DX Single Speed 1 CoilSystem, !- Component Name 2
  Node 10,                                !- Component Inlet Node Name 2
  Node 11,                                !- Component Outlet Node Name 2
  Passive,                                !- Component Branch Control Type 2
  Coil:Heating:Gas,                       !- Component Object Type 3
  Coil Heating Gas 1,                     !- Component Name 3
  Node 11,                                !- Component Inlet Node Name 3
  Node 12,                                !- Component Outlet Node Name 3
  Passive,                                !- Component Branch Control Type 3
  Fan:ConstantVolume,                     !- Component Object Type 4
  Fan Constant Volume 1,                  !- Component Name 4
  Node 12,                                !- Component Inlet Node Name 4
  Node 4,                                 !- Component Outlet Node Name 4
  Passive;                                !- Component Branch Control Type 4

AirLoopHVAC:OutdoorAirSystem,
  Air Loop HVAC Outdoor Air System 1,     !- Name
  AirLoopHVAC:ControllerList {ef28b845-259c-4538-92b5-63aeb8bdd032}, !- Controller List Name
  AirLoopHVAC:OutdoorAirSystem:EquipmentList {c853bb89-a757-456b-bfe5-49bc3ff23265}, !- Outdoor Air Equipment List Name
  AvailabilityManagerAssignmentList {dfb679d7-acca-47a1-bedc-ead370569811}; !- Availability Manager List Name

AirLoopHVAC:ControllerList,
  AirLoopHVAC:ControllerList {ef28b845-259c-4538-92b5-63aeb8bdd032}, !- Name
  Controller:OutdoorAir,                  !- Controller Object Type 1
  Controller Outdoor Air 1;               !- Controller Name 1

Controller:OutdoorAir,
  Controller Outdoor Air 1,               !- Name
  Node 9,                                 !- Relief Air Outlet Node Name
  Node 3,                                 !- Return Air Node Name
  Node 10,                                !- Mixed Air Node Name
  Node 8,                                 !- Actuator Node Name
  Autosize,                               !- Minimum Outdoor Air Flow Rate {m3/s}
  Autosize,                               !- Maximum Outdoor Air Flow Rate {m3/s}
  NoEconomizer,                           !- Economizer Control Type
  ModulateFlow,                           !- Economizer Control Action Type
  28,                                     !- Economizer Maximum Limit Dry-Bulb Temperature {C}
  64000,                                  !- Economizer Maximum Limit Enthalpy {J/kg}
  ,                                       !- Economizer Maximum Limit Dewpoint Temperature {C}
  ,                                       !- Electronic Enthalpy Limit Curve Name
  -100,                                   !- Economizer Minimum Limit Dry-Bulb Temperature {C}
  NoLockout,                              !- Lockout Type
  FixedMinimum,                           !- Minimum Limit Type
  ,                                       !- Minimum Outdoor Air Schedule Name
  ,                                       !- Minimum Fraction of Outdoor Air Schedule Name
  ,                                       !- Maximum Fraction of Outdoor Air Schedule Name
  Controller Mechanical Ventilation 1,    !- Mechanical Ventilation Controller Name
  ,                                       !- Time of Day Economizer Control Schedule Name
  No,                                     !- High Humidity Control
  ,                                       !- Humidistat Control Zone Name
  ,                                       !- High Humidity Outdoor Air Flow Ratio
  Yes,                                    !- Control High Indoor Humidity Based on Outdoor Humidity Ratio
  BypassWhenOAFlowGreaterThanMinimum;     !- Heat Recovery Bypass Control Type

Controller:MechanicalVentilation,
  Controller Mechanical Ventilation 1,    !- Name
  Always On Discrete,                     !- Availability Schedule Name
  No,                                     !- Demand Controlled Ventilation
  ZoneSum,                                !- System Outdoor Air Method
  ,                                       !- Zone Maximum Outdoor Air Fraction {dimensionless}
  Zone 1,                                 !- Zone Name 1
  Design OA,                              !- Design Specification Outdoor Air Object Name 1
  Zone 1 Design Spec Zone Air Dist;       !- Design Specification Zone Air Distribution Object Name 1

AvailabilityManagerAssignmentList,
  AvailabilityManagerAssignmentList {dfb679d7-acca-47a1-bedc-ead370569811}, !- Name
  AvailabilityManager:Scheduled,          !- Availability Manager Object Type 1
  AvailabilityManager:Scheduled {bddd6439-3fd4-49b6-862b-99b4cbfebaa3}; !- Availability Manager Name 1

AvailabilityManager:Scheduled,
  AvailabilityManager:Scheduled {bddd6439-3fd4-49b6-862b-99b4cbfebaa3}, !- Name
  Always On Discrete;                     !- Schedule Name

OutdoorAir:NodeList,
  Node 8;                                 !- Node or NodeList Name 1

AirLoopHVAC:OutdoorAirSystem:EquipmentList,
  AirLoopHVAC:OutdoorAirSystem:EquipmentList {c853bb89-a757-456b-bfe5-49bc3ff23265}, !- Name
  OutdoorAir:Mixer,                       !- Component Object Type 1
  OutdoorAir:Mixer {d1f91e5f-63c7-458c-ae53-91cb6033adc6}; !- Component Name 1

OutdoorAir:Mixer,
  OutdoorAir:Mixer {d1f91e5f-63c7-458c-ae53-91cb6033adc6}, !- Name
  Node 10,                                !- Mixed Air Node Name
  Node 8,                                 !- Outdoor Air Stream Node Name
  Node 9,                                 !- Relief Air Stream Node Name
  Node 3;                                 !- Return Air Stream Node Name

SetpointManager:MixedAir,
  Setpoint Manager Mixed Air 3,           !- Name
  Temperature,                            !- Control Variable
  Node 4,                                 !- Reference Setpoint Node Name
  Node 12,                                !- Fan Inlet Node Name
  Node 4,                                 !- Fan Outlet Node Name
  Node 10;                                !- Setpoint Node or NodeList Name

CoilSystem:Cooling:DX,
  Coil Cooling DX Single Speed 1 CoilSystem, !- Name
  Always On Discrete,                     !- Availability Schedule Name
  Node 10,                                !- DX Cooling Coil System Inlet Node Name
  Node 11,                                !- DX Cooling Coil System Outlet Node Name
  Node 11,                                !- DX Cooling Coil System Sensor Node Name
  Coil:Cooling:DX:SingleSpeed,            !- Cooling Coil Object Type
  Coil Cooling DX Single Speed 1;         !- Cooling Coil Name

Curve:Biquadratic,
  Curve Biquadratic 1,                    !- Name
  0.42415,                                !- Coefficient1 Constant
  0.04426,                                !- Coefficient2 x
  -0.00042,                               !- Coefficient3 x**2
  0.00333,                                !- Coefficient4 y