
OS:Version,
  {f702d07a-9dfc-4053-9af4-912d61dee621}, !- Handle
  1.2.5;                                  !- Version Identifier

OS:BuildingStory,
  {f05519d9-eb39-4d91-a03c-11e44c6df3f1}, !- Handle
  First Floor,                            !- Name
  ,                                       !- Nominal Z Coordinate {m}
  5,                                      !- Nominal Floor to Floor Height {m}
  ,                                       !- Default Construction Set Name
  ,                                       !- Default Schedule Set Name
  ;                                       !- Group Rendering Name

OS:Space,
  {1de03153-a6a3-46e3-abcd-49086e26203f}, !- Handle
  Space 1,                                !- Name
  ,                                       !- Space Type Name
  ,                                       !- Default Construction Set Name
  ,                                       !- Default Schedule Set Name
  ,                                       !- Direction of Relative North {deg}
  ,                                       !- X Origin {m}
  ,                                       !- Y Origin {m}
  ,                                       !- Z Origin {m}
  {f05519d9-eb39-4d91-a03c-11e44c6df3f1}; !- Building Story Name

OS:Surface,
  {638c8c07-43da-4b1f-9f17-533b179b5aa0}, !- Handle
  Surface 1,                              !- Name
  Floor,                                  !- Surface Type
  ,                                       !- Construction Name
  {1de03153-a6a3-46e3-abcd-49086e26203f}, !- Space Name
  Ground,                                 !- Outside Boundary Condition
  ,                                       !- Outside Boundary Condition Object
  NoSun,                                  !- Sun Exposure
  NoWind,                                 !- Wind Exposure
  ,                                       !- View Factor to Ground
  ,                                       !- Number of Vertices
  0, 0, 0,                                !- X,Y,Z Vertex 1 {m}
  0, 20, 0,                               !- X,Y,Z Vertex 2 {m}
  20, 20, 0,                              !- X,Y,Z Vertex 3 {m}
  20, 10, 0,                              !- X,Y,Z Vertex 4 {m}
  20, 0, 0;                               !- X,Y,Z Vertex 5 {m}

OS:Surface,
  {f31b2a28-23cb-43c4-b988-2200a50b12c0}, !- Handle
  Surface 2,                              !- Name
  Wall,                                   !- Surface Type
  ,                                       !- Construction Name
  {1de03153-a6a3-46e3-abcd-49086e26203f}, !- Space Name
  Outdoors,                               !- Outside Boundary Condition
  ,                                       !- Outside Boundary Condition Object
  SunExposed,                             !- Sun Exposure
  WindExposed,                            !- Wind Exposure
  ,                                       !- View Factor to Ground
  ,                                       !- Number of Vertices
  0, 20, 5,                               !- X,Y,Z Vertex 1 {m}
  0, 20, 0,                               !- X,Y,Z Vertex 2 {m}
  0, 0, 0,                                !- X,Y,Z Vertex 3 {m}
  0, 0, 5;                                !- X,Y,Z Vertex 4 {m}

OS:Surface,
  {45e5bcd4-dc86-4d4c-826e-f28f158368aa}, !- Handle
  Surface 3,                              !- Name
  Wall,                                   !- Surface Type
  ,                                       !- Construction Name
  {1de03153-a6a3-46e3-abcd-49086e26203f}, !- Space Name
  Outdoors,                               !- Outside Boundary Condition
  ,                                       !- Outside Boundary Condition Object
  SunExposed,                             !- Sun Exposure
  WindExposed,                            !- Wind Exposure
  ,                                       !- View Factor to Ground
  ,                                       !- Number of Vertices
  20, 20, 5,                              !- X,Y,Z Vertex 1 {m}
  20, 20, 0,                              !- X,Y,Z Vertex 2 {m}
  0, 20, 0,                               !- X,Y,Z Vertex 3 {m}
  0, 20, 5;                               !- X,Y,Z Vertex 4 {m}

OS:Surface,
  {cca47f94-d609-490b-aae2-03527f925fdc}, !- Handle
  Surface 4,                              !- Name
  Wall,                                   !- Surface Type
  ,                                       !- Construction Name
  {1de03153-a6a3-46e3-abcd-49086e26203f}, !- Space Name
  Surface,                                !- Outside Boundary Condition
  {042c9a4d-8f52-491e-842c-f57d89496e4a}, !- Outside Boundary Condition Object
  NoSun,                                  !- Sun Exposure
  NoWind,                                 !- Wind Exposure
  ,                                       !- View Factor to Ground
  ,                                       !- Number of Vertices
  20, 10, 5,                              !- X,Y,Z Vertex 1 {m}
  20, 10, 0,                              !- X,Y,Z Vertex 2 {m}
  20, 20, 0,                              !- X,Y,Z Vertex 3 {m}
  20, 20, 5;                              !- X,Y,Z Vertex 4 {m}

OS:Surface,
  {922098a9-6a1b-4cb4-9bb9-64cb4548dbbd}, !- Handle
  Surface 5,                              !- Name
  Wall,                                   !- Surface Type
  ,                                       !- Construction Name
  {1de03153-a6a3-46e3-abcd-49086e26203f}, !- Space Name
  Surface,                                !- Outside Boundary Condition
  {65ea762e-842a-4c04-921c-6b5ab54c43bc}, !- Outside Boundary Condition Object
  NoSun,                                  !- Sun Exposure
  NoWind,                                 !- Wind Exposure
  ,                                       !- View Factor to Ground
  ,                                       !- Number of Vertices
  20, 0, 5,                               !- X,Y,Z Vertex 1 {m}
  20, 0, 0,                               !- X,Y,Z Vertex 2 {m}
  20, 10, 0,                              !- X,Y,Z Vertex 3 {m}
  20, 10, 5;                              !- X,Y,Z Vertex 4 {m}

OS:Surface,
  {2956eabb-57b0-4a63-8270-8b0ee80e78dc}, !- Handle
  Surface 6,                              !- Name
  Wall,                                   !- Surface Type
  ,                                       !- Construction Name
  {1de03153-a6a3-46e3-abcd-49086e26203f}, !- Space Name
  Outdoors,                               !- Outside Boundary Condition
  ,                                       !- Outside Boundary Condition Object
  SunExposed,                             !- Sun Exposure
  WindExposed,                            !- Wind Exposure
  ,                                       !- View Factor to Ground
  ,                                       !- Number of Vertices
  0, 0, 5,                                !- X,Y,Z Vertex 1 {m}
  0, 0, 0,                                !- X,Y,Z Vertex 2 {m}
  20, 0, 0,                               !- X,Y,Z Vertex 3 {m}
  20, 0, 5;                               !- X,Y,Z Vertex 4 {m}

OS:Surface,
  {d7a6afb1-2df3-417b-bd61-410e1a0572aa}, !- Handle
  Surface 7,                              !- Name
  RoofCeiling,                            !- Surface Type
  ,                                       !- Construction Name
  {1de03153-a6a3-46e3-abcd-49086e26203f}, !- Space Name
  Outdoors,                               !- Outside Boundary Condition
  ,                                       !- Outside Boundary Condition Object
  SunExposed,                             !- Sun Exposure
  WindExposed,                            !- Wind Exposure
  ,                                       !- View Factor to Ground
  ,                                       !- Number of Vertices
  20, 0, 5,                               !- X,Y,Z Vertex 1 {m}
  20, 10, 5,                              !- X,Y,Z Vertex 2 {m}
  20, 20, 5,                              !- X,Y,Z Vertex 3 {m}
  0, 20, 5,                               !- X,Y,Z Vertex 4 {m}
  0, 0, 5;                                !- X,Y,Z Vertex 5 {m}

OS:Space,
  {0f88bc1d-da6f-44e5-8aec-bd58553163b2}, !- Handle
  Space 2,                                !- Name
  ,                                       !- Space Type Name
  ,                                       !- Default Construction Set Name
  ,                                       !- Default Schedule Set Name
  ,                                       !- Direction of Relative North {deg}
  ,                                       !- X Origin {m}
  ,                                       !- Y Origin {m}
  ,                                       !- Z Origin {m}
  {f05519d9-eb39-4d91-a03c-11e44c6df3f1}; !- Building Story Name

OS:Surface,
  {5010397b-8172-4f6e-9894-92bcc8991676}, !- Handle
  Surface 8,                              !- Name
  Floor,                                  !- Surface Type
  ,                                       !- Construction Name
  {0f88bc1d-da6f-44e5-8aec-bd58553163b2}, !- Space Name
  Ground,                                 !- Outside Boundary Condition
  ,                                       !- Outside Boundary Condition Object
  NoSun,                                  !- Sun Exposure
  NoWind,                                 !- Wind Exposure
  ,                                       !- View Factor to Ground
  ,                                       !- Number of Vertices
  20, 10, 0,                              !- X,Y,Z Vertex 1 {m}
  20, 20, 0,                              !- X,Y,Z Vertex 2 {m}
  30, 20, 0,                              !- X,Y,Z Vertex 3 {m}
  30, 10, 0;                              !- X,Y,Z Vertex 4 {m}

OS:Surface,
  {042c9a4d-8f52-491e-842c-f57d89496e4a}, !- Handle
  Surface 9,                              !- Name
  Wall,                                   !- Surface Type
  ,                                       !- Construction Name
  {0f88bc1d-da6f-44e5-8aec-bd58553163b2}, !- Space Name
  Surface,                                !- Outside Boundary Condition
  {cca47f94-d609-490b-aae2-03527f925fdc}, !- Outside Boundary Condition Object
  NoSun,                                  !- Sun Exposure
  NoWind,                                 !- Wind Exposure
  ,                                       !- View Factor to Ground
  ,                                       !- Number of Vertices
  20, 20, 5,                              !- X,Y,Z Vertex 1 {m}
  20, 20, 0,                              !- X,Y,Z Vertex 2 {m}
  20, 10, 0,                              !- X,Y,Z Vertex 3 {m}
  20, 10, 5;                              !- X,Y,Z Vertex 4 {m}

OS:Surface,
  {7d79404d-57b3-4879-8710-7a966785d51e}, !- Handle
  Surface 10,                             !- Name
  Wall,                                   !- Surface Type
  ,                                       !- Construction Name
  {0f88bc1d-da6f-44e5-8aec-bd58553163b2}, !- Space Name
  Outdoors,                               !- Outside Boundary Condition
  ,                                       !- Outside Boundary Condition Object
  SunExposed,                             !- Sun Exposure
  WindExposed,                            !- Wind Exposure
  ,                                       !- View Factor to Ground
  ,                                       !- Number of Vertices
  30, 20, 5,                              !- X,Y,Z Vertex 1 {m}
  30, 20, 0,                              !- X,Y,Z Vertex 2 {m}
  20, 20, 0,                              !- X,Y,Z Vertex 3 {m}
  20, 20, 5;                              !- X,Y,Z Vertex 4 {m}

OS:Surface,
  {d3db197e-6462-4c93-9c17-56d138e57f19}, !- Handle
  Surface 11,                             !- Name
  Wall,                                   !- Surface Type
  ,                                       !- Construction Name
  {0f88bc1d-da6f-44e5-8aec-bd58553163b2}, !- Space Name
  Outdoors,                               !- Outside Boundary Condition
  ,                                       !- Outside Boundary Condition Object
  SunExposed,                             !- Sun Exposure
  WindExposed,                            !- Wind Exposure
  ,                                       !- View Factor to Ground
  ,                                       !- Number of Vertices
  30, 10, 5,                              !- X,Y,Z Vertex 1 {m}
  30, 10, 0,                              !- X,Y,Z Vertex 2 {m}
  30, 20, 0,                              !- X,Y,Z Vertex 3 {m}
  30, 20, 5;                              !- X,Y,Z Vertex 4 {m}

OS:Surface,
  {673bc7fa-e2a3-4b2f-b92d-931aa7e83bf9}, !- Handle
  Surface 12,                             !- Name
  Wall,                                   !- Surface Type
  ,                                       !- Construction Name
  {0f88bc1d-da6f-44e5-8aec-bd58553163b2}, !- Space Name
  Surface,                                !- Outside Boundary Condition
  {161381b0-ef40-45aa-bd24-c4c84ff63756}, !- Outside Boundary Condition Object
  NoSun,                                  !- Sun Exposure
  NoWind,                                 !- Wind Exposure
  ,                                       !- View Factor to Ground
  ,                                       !- Number of Vertices
  20, 10, 5,                              !- X,Y,Z Vertex 1 {m}
  20, 10, 0,                              !- X,Y,Z Vertex 2 {m}
  30, 10, 0,                              !- X,Y,Z Vertex 3 {m}
  30, 10, 5;                              !- X,Y,Z Vertex 4 {m}

OS:Surface,
  {410f00a8-02d6-46fc-9087-6e8ab7610732}, !- Handle
  Surface 13,                             !- Name
  RoofCeiling,                            !- Surface Type
  ,                                       !- Construction Name
  {0f88bc1d-da6f-44e5-8aec-bd58553163b2}, !- Space Name
  Outdoors,                               !- Outside Boundary Condition
  ,                                       !- Outside Boundary Condition Object
  SunExposed,                             !- Sun Exposure
  WindExposed,                            !- Wind Exposure
  ,                                       !- View Factor to Ground
  ,                                       !- Number of Vertices
  30, 10, 5,                              !- X,Y,Z Vertex 1 {m}
  30, 20, 5,                              !- X,Y,Z Vertex 2 {m}
  20, 20, 5,                              !- X,Y,Z Vertex 3 {m}
  20, 10, 5;                              !- X,Y,Z Vertex 4 {m}

OS:Space,
  {9625c3c5-796c-4779-ae1a-c402329d19b2}, !- Handle
  Space 3,                                !- Name
  ,                                       !- Space Type Name
  ,                                       !- Default Construction Set Name
  ,                                       !- Default Schedule Set Name
  ,                                       !- Direction of Relative North {deg}
  ,                                       !- X Origin {m}
  ,                                       !- Y Origin {m}
  ,                                       !- Z Origin {m}
  {f05519d9-eb39-4d91-a03c-11e44c6df3f1}; !- Building Story Name

OS:Surface,
  {85e63222-866c-471f-813d-1fd4777fd9d5}, !- Handle
  Surface 14,                             !- Name
  Floor,                                  !- Surface Type
  ,                                       !- Construction Name
  {9625c3c5-796c-4779-ae1a-c402329d19b2}, !- Space Name
  Ground,                                 !- Outside Boundary Condition
  ,                                       !- Outside Boundary Condition Object
  NoSun,                                  !- Sun Exposure
  NoWind,                                 !- Wind Exposure
  ,                                       !- View Factor to Ground
  ,                                       !- Number of Vertices
  20, 0, 0,                               !- X,Y,Z Vertex 1 {m}
  20, 10, 0,                              !- X,Y,Z Vertex 2 {m}
  30, 10, 0,                              !- X,Y,Z Vertex 3 {m}
  30, 0, 0;                               !- X,Y,Z Vertex 4 {m}

OS:Surface,
  {65ea762e-842a-4c04-921c-6b5ab54c43bc}, !- Handle
  Surface 15,                             !- Name
  Wall,                                   !- Surface Type
  ,                                       !- Construction Name
  {9625c3c5-796c-4779-ae1a-c402329d19b2}, !- Space Name
  Surface,                                !- Outside Boundary Condition
  {922098a9-6a1b-4cb4-9bb9-64cb4548dbbd}, !- Outside Boundary Condition Object
  NoSun,                                  !- Sun Exposure
  NoWind,                                 !- Wind Exposure
  ,                                       !- View Factor to Ground
  ,                                       !- Number of Vertices
  20, 10, 5,                              !- X,Y,Z Vertex 1 {m}
  20, 10, 0,                              !- X,Y,Z Vertex 2 {m}
  20, 0, 0,                               !- X,Y,Z Vertex 3 {m}
  20, 0, 5;                               !- X,Y,Z Vertex 4 {m}

OS:Surface,
  {161381b0-ef40-45aa-bd24-c4c84ff63756}, !- Handle
  Surface 16,                             !- Name
  Wall,                                   !- Surface Type
  ,                                       !- Construction Name
  {9625c3c5-796c-4779-ae1a-c402329d19b2}, !- Space Name
  Surface,                                !- Outside Boundary Condition
  {673bc7fa-e2a3-4b2f-b92d-931aa7e83bf9}, !- Outside Boundary Condition Object
  NoSun,                                  !- Sun Exposure
  NoWind,                                 !- Wind Exposure
  ,                                       !- View Factor to Ground
  ,                                       !- Number of Vertices
  30, 10, 5,                              !- X,Y,Z Vertex 1 {m}
  30, 10, 0,                              !- X,Y,Z Vertex 2 {m}
  20, 10, 0,                              !- X,Y,Z Vertex 3 {m}
  20, 10, 5;                              !- X,Y,Z Vertex 4 {m}

OS:Surface,
  {e65c30cd-6611-4cbf-b256-64c42de4710b}, !- Handle
  Surface 17,                             !- Name
  Wall,                                   !- Surface Type
  ,                                       !- Construction Name
  {9625c3c5-796c-4779-ae1a-c402329d19b2}, !- Space Name
  Outdoors,                               !- Outside Boundary Condition
  ,                                       !- Outside Boundary Condition Object
  SunExposed,                             !- Sun Exposure
  WindExposed,                            !- Wind Exposure
  ,                                       !- View Factor to Ground
  ,                                       !- Number of Vertices
  30, 0, 5,                               !- X,Y,Z Vertex 1 {m}
  30, 0, 0,                               !- X,Y,Z Vertex 2 {m}
  30, 10, 0,                              !- X,Y,Z Vertex 3 {m}
  30, 10, 5;                              !- X,Y,Z Vertex 4 {m}

OS:Surface,
  {adb6d53c-4a9c-4cdd-a20c-0e5416172882}, !- Handle
  Surface 18,                             !- Name
  Wall,                                   !- Surface Type
  ,                                       !- Construction Name
  {9625c3c5-796c-4779-ae1a-c402329d19b2}, !- Space Name
  Outdoors,                               !- Outside Boundary Condition
  ,                                       !- Outside Boundary Condition Object
  SunExposed,                             !- Sun Exposure
  WindExposed,                            !- Wind Exposure
  ,                                       !- View Factor to Ground
  ,                                       !- Number of Vertices
  20, 0, 5,                               !- X,Y,Z Vertex 1 {m}
  20, 0, 0,                               !- X,Y,Z Vertex 2 {m}
  30, 0, 0,                               !- X,Y,Z Vertex 3 {m}
  30, 0, 5;                               !- X,Y,Z Vertex 4 {m}

OS:Surface,
  {fee2755c-64bc-4974-8e98-e7e9392fddce}, !- Handle
  Surface 19,                             !- Name
  RoofCeiling,                            !- Surface Type
  ,                                       !- Construction Name
  {9625c3c5-796c-4779-ae1a-c402329d19b2}, !- Space Name
  Outdoors,                               !- Outside Boundary Condition
  ,                                       !- Outside Boundary Condition Object
  SunExposed,                             !- Sun Exposure
  WindExposed,                            !- Wind Exposure
  ,                                       !- View Factor to Ground
  ,                                       !- Number of Vertices
  30, 0, 5,                               !- X,Y,Z Vertex 1 {m}
  30, 10, 5,                              !- X,Y,Z Vertex 2 {m}
  20, 10, 5,                              !- X,Y,Z Vertex 3 {m}
  20, 0, 5;                               !- X,Y,Z Vertex 4 {m}

OS:Material,
  {63314707-c574-4817-9066-736536302220}, !- Handle
  Plywood - 5/8in,                        !- Name
  Smooth,                                 !- Roughness
  0.015875,                               !- Thickness {m}
  0.12,                                   !- Conductivity {W/m-K}
  544,                                    !- Density {kg/m3}
  1210;                                   !- Specific Heat {J/kg-K}

OS:Material,
  {c9e6c158-f231-491f-b704-9fbb14b0c9fa}, !- Handle
  Expanded Polystyrene - 2in,             !- Name
  Smooth,                                 !- Roughness
  0.0508,                                 !- Thickness {m}
  0.0352,                                 !- Conductivity {W/m-K}
  24,                                     !- Density {kg/m3}
  1210;                                   !- Specific Heat {J/kg-K}

OS:Material,
  {3412cde1-a22c-48c6-91d5-702f4c3c072c}, !- Handle
  Heavyweight Concrete – 6in,             !- Name
  Smooth,                                 !- Roughness
  0.1524,                                 !- Thickness {m}
  1.95,                                   !- Conductivity {W/m-K}
  2242.6,                                 !- Density {kg/m3}
  900;                                    !- Specific Heat {J/kg-K}

OS:WindowMaterial:SimpleGlazingSystem,
  {ab5d7b13-df82-470a-99c3-4af4a1a363ed}, !- Handle
  Glass,                                  !- Name
  0.1,                                    !- U-Factor {W/m2-K}
  0.3,                                    !- Solar Heat Gain Coefficient
  0.7;                                    !- Visible Transmittance

OS:Construction,
  {76fde1c1-c160-439d-afa6-5d082eb1250a}, !- Handle
  Ext Wall Construction,                  !- Name
  ,                                       !- Surface Rendering Name
  {63314707-c574-4817-9066-736536302220}, !- Layer 1
  {c9e6c158-f231-491f-b704-9fbb14b0c9fa}, !- Layer 2
  {3412cde1-a22c-48c6-91d5-702f4c3c072c}; !- Layer 3

OS:Construction,
  {8fd86667-8881-43e6-9539-40d9691f9f77}, !- Handle
  Int Wall Construction,                  !- Name
  ,                                       !- Surface Rendering Name
  {63314707-c574-4817-9066-736536302220}, !- Layer 1
  {63314707-c574-4817-9066-736536302220}; !- Layer 2

OS:Construction,
  {9a5ec105-2fde-4357-bc0b-8f580c31f8e3}, !- Handle
  Roof Construction,                      !- Name
  ,                                       !- Surface Rendering Name
  {63314707-c574-4817-9066-736536302220}, !- Layer 1
  {c9e6c158-f231-491f-b704-9fbb14b0c9fa}, !- Layer 2
  {c9e6c158-f231-491f-b704-9fbb14b0c9fa}, !- Layer 3
  {63314707-c574-4817-9066-736536302220}; !- Layer 4

OS:Construction,
  {cbec0eb9-29b2-408a-aea5-c70dd42ae1e1}, !- Handle
  Window Construction,                    !- Name
  ,                                       !- Surface Rendering Name
  {ab5d7b13-df82-470a-99c3-4af4a1a363ed}; !- Layer 1

OS:DefaultSurfaceConstructions,
  {69a6851b-ba26-4479-a5e3-a1e1113ad623}, !- Handle
  Default Surface Constructions 1,        !- Name
  {76fde1c1-c160-439d-afa6-5d082eb1250a}, !- Floor Construction Name
  {76fde1c1-c160-439d-afa6-5d082eb1250a}, !- Wall Construction Name
  {9a5ec105-2fde-4357-bc0b-8f580c31f8e3}; !- Roof Ceiling Construction Name

OS:DefaultSurfaceConstructions,
  {b428d844-00df-4f88-bbcf-9320a15316a3}, !- Handle
  Default Surface Constructions 2,        !- Name
  {8fd86667-8881-43e6-9539-40d9691f9f77}, !- Floor Construction Name
  {8fd86667-8881-43e6-9539-40d9691f9f77}, !- Wall Construction Name
  ;                                       !- Roof Ceiling Construction Name

OS:DefaultSubSurfaceConstructions,
  {b0376898-473d-4c5d-a574-4c08c2b5ea0f}, !- Handle
  Default Sub Surface Constructions 1,    !- Name
  {cbec0eb9-29b2-408a-aea5-c70dd42ae1e1}, !- Fixed Window Construction Name
  ,                                       !- Operable Window Construction Name
  {cbec0eb9-29b2-408a-aea5-c70dd42ae1e1}, !- Door Construction Name
  ,                                       !- Glass Door Construction Name
  ,                                       !- Overhead Door Construction Name
  ,                                       !- Skylight Construction Name
  ,                                       !- Tubular Daylight Dome Construction Name
  ;                                       !- Tubular Daylight Diffuser Construction Name

OS:DefaultConstructionSet,
  {cdfae1f9-c099-4dce-b71d-bc5702166d04}, !- Handle
  Building Default Constructions,         !- Name
  {69a6851b-ba26-4479-a5e3-a1e1113ad623}, !- Default Exterior Surface Constructions Name
  {b428d844-00df-4f88-bbcf-9320a15316a3}, !- Default Interior Surface Constructions Name
  {69a6851b-ba26-4479-a5e3-a1e1113ad623}, !- Default Ground Contact Surface Constructions Name
  {b0376898-473d-4c5d-a574-4c08c2b5ea0f}, !- Default Exterior SubSurface Constructions Name
  {b0376898-473d-4c5d-a574-4c08c2b5ea0f}, !- Default Interior SubSurface Constructions Name
  ,                                       !- Interior Partition Construction Name
  ,                                       !- Space Shading Construction Name
  ,                                       !- Building Shading Construction Name
  ;                                       !- Site Shading Construction Name

OS:Building,
  {084f0e85-a853-492b-9e9f-b603266a140f}, !- Handle
  Building 1,                             !- Name
  ,                                       !- Building Sector Type
  ,                                       !- North Axis {deg}
  ,                                       !- Nominal Floor to Floor Height {m}
  ,                                       !- Space Type Name
  {cdfae1f9-c099-4dce-b71d-bc5702166d04}, !- Default Construction Set Name
  ;                                       !- Default Schedule Set Name

